 xtb: 6.6.0 (2ccbbd7)
          12262323253D

 58 60  0     0  0            999 V2000
   10.3789  -30.0331  -30.4143 C   0  0  0  0  0  0  0  0  0  0  0  0
   11.1659  -29.5089  -29.3409 C   0  0  0  0  0  0  0  0  0  0  0  0
   11.5325  -28.1449  -29.2521 C   0  0  0  0  0  0  0  0  0  0  0  0
   12.2658  -27.6514  -28.1998 C   0  0  0  0  0  0  0  0  0  0  0  0
   12.7190  -28.4822  -27.1446 C   0  0  0  0  0  0  0  0  0  0  0  0
   12.4166  -29.8631  -27.2671 C   0  0  0  0  0  0  0  0  0  0  0  0
   11.6533  -30.3454  -28.3049 C   0  0  0  0  0  0  0  0  0  0  0  0
   10.4821  -31.4418  -30.6943 C   0  0  0  0  0  0  0  0  0  0  0  0
   11.7344  -32.0861  -30.6970 C   0  0  0  0  0  0  0  0  0  0  0  0
   11.8631  -33.3947  -31.0958 C   0  0  0  0  0  0  0  0  0  0  0  0
   10.7411  -34.1961  -31.4290 C   0  0  0  0  0  0  0  0  0  0  0  0
    9.4722  -33.5749  -31.3330 C   0  0  0  0  0  0  0  0  0  0  0  0
    9.3706  -32.2413  -31.0195 C   0  0  0  0  0  0  0  0  0  0  0  0
    9.5645  -29.2190  -31.2813 C   0  0  0  0  0  0  0  0  0  0  0  0
    9.3794  -29.5823  -32.6453 C   0  0  0  0  0  0  0  0  0  0  0  0
    8.6169  -28.8253  -33.5071 C   0  0  0  0  0  0  0  0  0  0  0  0
    7.9248  -27.6582  -33.0578 C   0  0  0  0  0  0  0  0  0  0  0  0
    8.1445  -27.2636  -31.7119 C   0  0  0  0  0  0  0  0  0  0  0  0
    8.9250  -28.0156  -30.8680 C   0  0  0  0  0  0  0  0  0  0  0  0
   13.8889  -28.8465  -25.0310 C   0  0  0  0  0  0  0  0  0  0  0  0
   13.4671  -26.5408  -25.8790 C   0  0  0  0  0  0  0  0  0  0  0  0
    9.8598  -36.2074  -32.4865 C   0  0  0  0  0  0  0  0  0  0  0  0
   12.1207  -36.2196  -31.5176 C   0  0  0  0  0  0  0  0  0  0  0  0
    6.6215  -25.6443  -33.5062 C   0  0  0  0  0  0  0  0  0  0  0  0
    6.8333  -27.4036  -35.2298 C   0  0  0  0  0  0  0  0  0  0  0  0
   13.3687  -27.9722  -26.0667 N   0  0  0  0  0  0  0  0  0  0  0  0
   10.9242  -35.4753  -31.8368 N   0  0  0  0  0  0  0  0  0  0  0  0
    7.1085  -26.9500  -33.8770 N   0  0  0  0  0  0  0  0  0  0  0  0
    7.6773  -27.2270  -35.9005 H   0  0  0  0  0  0  0  0  0  0  0  0
    6.5935  -28.4681  -35.2369 H   0  0  0  0  0  0  0  0  0  0  0  0
    5.9641  -26.8729  -35.6131 H   0  0  0  0  0  0  0  0  0  0  0  0
    5.7692  -25.7109  -32.8229 H   0  0  0  0  0  0  0  0  0  0  0  0
    7.4062  -25.0535  -33.0321 H   0  0  0  0  0  0  0  0  0  0  0  0
    6.2973  -25.1127  -34.3983 H   0  0  0  0  0  0  0  0  0  0  0  0
   12.7542  -36.3588  -32.3940 H   0  0  0  0  0  0  0  0  0  0  0  0
   12.6752  -35.7263  -30.7256 H   0  0  0  0  0  0  0  0  0  0  0  0
   11.8180  -37.1961  -31.1399 H   0  0  0  0  0  0  0  0  0  0  0  0
    9.2906  -36.8402  -31.8044 H   0  0  0  0  0  0  0  0  0  0  0  0
    9.1641  -35.5201  -32.9628 H   0  0  0  0  0  0  0  0  0  0  0  0
   10.2858  -36.8440  -33.2622 H   0  0  0  0  0  0  0  0  0  0  0  0
   13.9583  -26.0468  -26.7154 H   0  0  0  0  0  0  0  0  0  0  0  0
   12.4721  -26.1001  -25.7472 H   0  0  0  0  0  0  0  0  0  0  0  0
   14.0341  -26.3345  -24.9748 H   0  0  0  0  0  0  0  0  0  0  0  0
   13.1164  -29.4823  -24.5995 H   0  0  0  0  0  0  0  0  0  0  0  0
   14.6747  -29.4809  -25.4550 H   0  0  0  0  0  0  0  0  0  0  0  0
   14.3365  -28.2495  -24.2422 H   0  0  0  0  0  0  0  0  0  0  0  0
    8.9731  -27.7303  -29.8286 H   0  0  0  0  0  0  0  0  0  0  0  0
    7.6127  -26.4185  -31.3068 H   0  0  0  0  0  0  0  0  0  0  0  0
    8.5402  -29.1324  -34.5368 H   0  0  0  0  0  0  0  0  0  0  0  0
    9.8886  -30.4521  -33.0265 H   0  0  0  0  0  0  0  0  0  0  0  0
    8.4048  -31.8056  -30.8646 H   0  0  0  0  0  0  0  0  0  0  0  0
    8.5636  -34.1480  -31.4309 H   0  0  0  0  0  0  0  0  0  0  0  0
   12.8524  -33.7856  -31.2570 H   0  0  0  0  0  0  0  0  0  0  0  0
   12.6267  -31.4964  -30.5511 H   0  0  0  0  0  0  0  0  0  0  0  0
   11.4312  -31.4003  -28.3286 H   0  0  0  0  0  0  0  0  0  0  0  0
   12.7817  -30.5629  -26.5353 H   0  0  0  0  0  0  0  0  0  0  0  0
   12.4279  -26.5879  -28.1539 H   0  0  0  0  0  0  0  0  0  0  0  0
   11.2083  -27.4608  -30.0197 H   0  0  0  0  0  0  0  0  0  0  0  0
  1  2  4  0  0  0  0
  2  3  4  0  0  0  0
  3  4  2  0  0  0  0
  4  5  4  0  0  0  0
  5  6  4  0  0  0  0
  2  7  4  0  0  0  0
  6  7  2  0  0  0  0
  1  8  1  0  0  0  0
  8  9  4  0  0  0  0
  9 10  2  0  0  0  0
 10 11  4  0  0  0  0
 11 12  4  0  0  0  0
  8 13  4  0  0  0  0
 12 13  2  0  0  0  0
  1 14  4  0  0  0  0
 14 15  4  0  0  0  0
 15 16  2  0  0  0  0
 16 17  4  0  0  0  0
 17 18  4  0  0  0  0
 14 19  4  0  0  0  0
 18 19  2  0  0  0  0
  5 26  4  0  0  0  0
 20 26  1  0  0  0  0
 21 26  1  0  0  0  0
 11 27  4  0  0  0  0
 22 27  1  0  0  0  0
 23 27  1  0  0  0  0
 17 28  4  0  0  0  0
 24 28  1  0  0  0  0
 25 28  1  0  0  0  0
 25 29  1  0  0  0  0
 25 30  1  0  0  0  0
 25 31  1  0  0  0  0
 24 32  1  0  0  0  0
 24 33  1  0  0  0  0
 24 34  1  0  0  0  0
 23 35  1  0  0  0  0
 23 36  1  0  0  0  0
 23 37  1  0  0  0  0
 22 38  1  0  0  0  0
 22 39  1  0  0  0  0
 22 40  1  0  0  0  0
 21 41  1  0  0  0  0
 21 42  1  0  0  0  0
 21 43  1  0  0  0  0
 20 44  1  0  0  0  0
 20 45  1  0  0  0  0
 20 46  1  0  0  0  0
 19 47  1  0  0  0  0
 18 48  1  0  0  0  0
 16 49  1  0  0  0  0
 15 50  1  0  0  0  0
 13 51  1  0  0  0  0
 12 52  1  0  0  0  0
 10 53  1  0  0  0  0
  9 54  1  0  0  0  0
  7 55  1  0  0  0  0
  6 56  1  0  0  0  0
  4 57  1  0  0  0  0
  3 58  1  0  0  0  0
M  CHG  1   1   1
M  END
