 xtb: 6.5.1 (b24c23e)
          11092209003D

 42 45  0     0  0            999 V2000
    8.7793   -5.6536   -3.6675 C   0  0  0  0  0  0  0  0  0  0  0  0
    8.4716   -5.3581   -2.6702 H   0  0  0  0  0  0  0  0  0  0  0  0
    8.0190   -5.2356   -4.7409 C   0  0  0  0  0  0  0  0  0  0  0  0
    7.1409   -4.6185   -4.6031 H   0  0  0  0  0  0  0  0  0  0  0  0
    8.4453   -5.5465   -6.0274 C   0  0  0  0  0  0  0  0  0  0  0  0
    7.4290   -4.9415   -7.2776 Cl  0  0  0  0  0  0  0  0  0  0  0  0
    9.6161   -6.2867   -6.2733 C   0  0  0  0  0  0  0  0  0  0  0  0
    9.9122   -6.5199   -7.2906 H   0  0  0  0  0  0  0  0  0  0  0  0
   10.3540   -6.7253   -5.1631 C   0  0  0  0  0  0  0  0  0  0  0  0
   11.2476   -7.3284   -5.2861 H   0  0  0  0  0  0  0  0  0  0  0  0
    9.9221   -6.4351   -3.8505 C   0  0  0  0  0  0  0  0  0  0  0  0
   10.6722   -6.8984   -2.6624 C   0  0  0  0  0  0  0  0  0  0  0  0
   11.9196   -7.1378   -2.8172 N   0  0  0  0  0  0  0  0  0  0  0  0
    9.8956   -7.0461   -1.3839 C   0  0  0  0  0  0  0  0  0  0  0  0
    8.5623   -7.5181   -1.4600 C   0  0  0  0  0  0  0  0  0  0  0  0
    8.2166   -7.9117   -2.4038 H   0  0  0  0  0  0  0  0  0  0  0  0
    7.6871   -7.4558   -0.3841 C   0  0  0  0  0  0  0  0  0  0  0  0
    6.7018   -7.8865   -0.4847 H   0  0  0  0  0  0  0  0  0  0  0  0
    8.1127   -6.8921    0.8382 C   0  0  0  0  0  0  0  0  0  0  0  0
    7.4627   -6.9013    1.6994 H   0  0  0  0  0  0  0  0  0  0  0  0
    9.4133   -6.4054    0.9249 C   0  0  0  0  0  0  0  0  0  0  0  0
    9.7720   -5.9760    1.8510 H   0  0  0  0  0  0  0  0  0  0  0  0
   10.3244   -6.4388   -0.1559 C   0  0  0  0  0  0  0  0  0  0  0  0
   11.6766   -5.8802   -0.0475 C   0  0  0  0  0  0  0  0  0  0  0  0
   12.2685   -4.7509    0.5849 C   0  0  0  0  0  0  0  0  0  0  0  0
   11.6543   -3.6571    1.4102 C   0  0  0  0  0  0  0  0  0  0  0  0
   11.3815   -4.0542    2.3907 H   0  0  0  0  0  0  0  0  0  0  0  0
   10.7793   -3.2198    0.9364 H   0  0  0  0  0  0  0  0  0  0  0  0
   12.4218   -2.8981    1.5751 H   0  0  0  0  0  0  0  0  0  0  0  0
   13.5647   -4.7086    0.3822 N   0  0  0  0  0  0  0  0  0  0  0  0
   13.8595   -5.7584   -0.5073 O   0  0  0  0  0  0  0  0  0  0  0  0
   12.7147   -6.4017   -0.7650 C   0  0  0  0  0  0  0  0  0  0  0  0
   12.6777   -7.5632   -1.6813 C   0  0  0  0  0  0  0  0  0  0  0  0
   12.1619   -8.4056   -1.1919 H   0  0  0  0  0  0  0  0  0  0  0  0
   14.0644   -8.0399   -2.1024 C   0  0  0  0  0  0  0  0  0  0  0  0
   14.5798   -8.4805   -1.2528 H   0  0  0  0  0  0  0  0  0  0  0  0
   14.6663   -7.2067   -2.4611 H   0  0  0  0  0  0  0  0  0  0  0  0
   13.9124   -9.0815   -3.2208 C   0  0  0  0  0  0  0  0  0  0  0  0
   12.9058   -9.7582   -3.3922 O   0  0  0  0  0  0  0  0  0  0  0  0
   15.0493   -9.2455   -3.9508 N   0  0  0  0  0  0  0  0  0  0  0  0
   14.9601   -9.7658   -4.8075 H   0  0  0  0  0  0  0  0  0  0  0  0
   15.7360   -8.5029   -3.9475 H   0  0  0  0  0  0  0  0  0  0  0  0
  1  2  1  0  0  0  0
  1  3  4  0  0  0  0
  3  4  1  0  0  0  0
  3  5  4  0  0  0  0
  5  6  1  0  0  0  0
  5  7  4  0  0  0  0
  7  8  1  0  0  0  0
  7  9  4  0  0  0  0
  9 10  1  0  0  0  0
  1 11  4  0  0  0  0
  9 11  4  0  0  0  0
 11 12  1  0  0  0  0
 12 13  2  0  0  0  0
 12 14  1  0  0  0  0
 14 15  4  0  0  0  0
 15 16  1  0  0  0  0
 15 17  4  0  0  0  0
 17 18  1  0  0  0  0
 17 19  4  0  0  0  0
 19 20  1  0  0  0  0
 19 21  4  0  0  0  0
 21 22  1  0  0  0  0
 14 23  4  0  0  0  0
 21 23  4  0  0  0  0
 23 24  1  0  0  0  0
 24 25  4  0  0  0  0
 25 26  1  0  0  0  0
 26 27  1  0  0  0  0
 26 28  1  0  0  0  0
 26 29  1  0  0  0  0
 25 30  2  0  0  0  0
 30 31  1  0  0  0  0
 24 32  4  0  0  0  0
 31 32  1  0  0  0  0
 13 33  1  0  0  0  0
 32 33  1  0  0  0  0
 33 34  1  0  0  0  0
 33 35  1  0  0  0  0
 35 36  1  0  0  0  0
 35 37  1  0  0  0  0
 35 38  1  0  0  0  0
 38 39  2  0  0  0  0
 38 40  4  0  0  0  0
 40 41  1  0  0  0  0
 40 42  1  0  0  0  0
M  END
