 xtb: 6.6.0 (2ccbbd7)
          01092422343D

482470  0     0  0            999 V2000
   57.3351  -29.6559  -97.1651 H   0  0  0  0  0  0  0  0  0  0  0  0
   57.3120  -30.5850  -97.1280 N   0  0  0  0  0  0  0  0  0  0  0  0
   56.3310  -31.3450  -96.3720 C   0  0  0  0  0  0  0  0  0  0  0  0
   56.4320  -31.0560  -94.8890 C   0  0  0  0  0  0  0  0  0  0  0  0
   55.4230  -31.0460  -94.1920 O   0  0  0  0  0  0  0  0  0  0  0  0
   56.5190  -32.8440  -96.6290 C   0  0  0  0  0  0  0  0  0  0  0  0
   56.3720  -33.3060  -98.0880 C   0  0  0  0  0  0  0  0  0  0  0  0
   56.4940  -34.8350  -98.1870 C   0  0  0  0  0  0  0  0  0  0  0  0
   55.0330  -32.8500  -98.6200 C   0  0  0  0  0  0  0  0  0  0  0  0
   57.9654  -31.1035  -97.7049 H   0  0  0  0  0  0  0  0  0  0  0  0
   55.3264  -31.0435  -96.6693 H   0  0  0  0  0  0  0  0  0  0  0  0
   57.5133  -33.1344  -96.2876 H   0  0  0  0  0  0  0  0  0  0  0  0
   55.7934  -33.3880  -96.0219 H   0  0  0  0  0  0  0  0  0  0  0  0
   56.9308  -32.7723  -98.7950 H   0  0  0  0  0  0  0  0  0  0  0  0
   55.7509  -35.3126  -97.5514 H   0  0  0  0  0  0  0  0  0  0  0  0
   56.3476  -35.1409  -99.2230 H   0  0  0  0  0  0  0  0  0  0  0  0
   57.4952  -35.1330  -97.8777 H   0  0  0  0  0  0  0  0  0  0  0  0
   54.9991  -31.7654  -98.7121 H   0  0  0  0  0  0  0  0  0  0  0  0
   54.8839  -33.2681  -99.6171 H   0  0  0  0  0  0  0  0  0  0  0  0
   54.2334  -33.1963  -97.9663 H   0  0  0  0  0  0  0  0  0  0  0  0
   57.3846  -30.8697  -94.5078 H   0  0  0  0  0  0  0  0  0  0  0  0
   55.4874  -26.9312  -93.7727 H   0  0  0  0  0  0  0  0  0  0  0  0
   55.0470  -27.3940  -94.4540 N   0  0  0  0  0  0  0  0  0  0  0  0
   53.5900  -27.4450  -94.5660 C   0  0  0  0  0  0  0  0  0  0  0  0
   52.9340  -28.2100  -93.4220 C   0  0  0  0  0  0  0  0  0  0  0  0
   51.8550  -27.8370  -92.9650 O   0  0  0  0  0  0  0  0  0  0  0  0
   53.1920  -28.0870  -95.8950 C   0  0  0  0  0  0  0  0  0  0  0  0
   53.6340  -27.3180  -97.1390 C   0  0  0  0  0  0  0  0  0  0  0  0
   53.7740  -28.2780  -98.3020 C   0  0  0  0  0  0  0  0  0  0  0  0
   52.6420  -26.2190  -97.4540 C   0  0  0  0  0  0  0  0  0  0  0  0
   55.6074  -27.8571  -95.1613 H   0  0  0  0  0  0  0  0  0  0  0  0
   53.1924  -26.4295  -94.5283 H   0  0  0  0  0  0  0  0  0  0  0  0
   53.6400  -29.0820  -95.9174 H   0  0  0  0  0  0  0  0  0  0  0  0
   52.1095  -28.2226  -95.9238 H   0  0  0  0  0  0  0  0  0  0  0  0
   54.6050  -26.8548  -96.9751 H   0  0  0  0  0  0  0  0  0  0  0  0
   52.8089  -28.7301  -98.5254 H   0  0  0  0  0  0  0  0  0  0  0  0
   54.1218  -27.7299  -99.1773 H   0  0  0  0  0  0  0  0  0  0  0  0
   54.4965  -29.0565  -98.0675 H   0  0  0  0  0  0  0  0  0  0  0  0
   52.5893  -25.5156  -96.6239 H   0  0  0  0  0  0  0  0  0  0  0  0
   52.9618  -25.6821  -98.3468 H   0  0  0  0  0  0  0  0  0  0  0  0
   51.6522  -26.6383  -97.6340 H   0  0  0  0  0  0  0  0  0  0  0  0
   53.5800  -29.2830  -92.9700 N   0  0  0  0  0  0  0  0  0  0  0  0
   53.0600  -30.0890  -91.8670 C   0  0  0  0  0  0  0  0  0  0  0  0
   52.9920  -29.2950  -90.5690 C   0  0  0  0  0  0  0  0  0  0  0  0
   52.1090  -29.5060  -89.7470 O   0  0  0  0  0  0  0  0  0  0  0  0
   53.9270  -31.3310  -91.6390 C   0  0  0  0  0  0  0  0  0  0  0  0
   53.4410  -32.7860  -92.5980 S   0  0  0  0  0  0  0  0  0  0  0  0
   54.4466  -29.5686  -93.4055 H   0  0  0  0  0  0  0  0  0  0  0  0
   52.0381  -30.4008  -92.0799 H   0  0  0  0  0  0  0  0  0  0  0  0
   54.9792  -31.0932  -91.7928 H   0  0  0  0  0  0  0  0  0  0  0  0
   53.8290  -31.6137  -90.5876 H   0  0  0  0  0  0  0  0  0  0  0  0
   54.0124  -32.3395  -93.7271 H   0  0  0  0  0  0  0  0  0  0  0  0
   53.7269  -28.5719  -90.4267 H   0  0  0  0  0  0  0  0  0  0  0  0
   52.9990  -26.1996  -89.6266 H   0  0  0  0  0  0  0  0  0  0  0  0
   52.8800  -25.8320  -90.4710 N   0  0  0  0  0  0  0  0  0  0  0  0
   52.0260  -24.6750  -90.6860 C   0  0  0  0  0  0  0  0  0  0  0  0
   50.5780  -25.0390  -90.3760 C   0  0  0  0  0  0  0  0  0  0  0  0
   49.8830  -24.3240  -89.6520 O   0  0  0  0  0  0  0  0  0  0  0  0
   52.1360  -24.2190  -92.1370 C   0  0  0  0  0  0  0  0  0  0  0  0
   51.2130  -23.1060  -92.6150 C   0  0  0  0  0  0  0  0  0  0  0  0
   51.3610  -21.8930  -91.7230 C   0  0  0  0  0  0  0  0  0  0  0  0
   51.5640  -22.7620  -94.0570 C   0  0  0  0  0  0  0  0  0  0  0  0
   53.4357  -26.1974  -91.2361 H   0  0  0  0  0  0  0  0  0  0  0  0
   52.3245  -23.8711  -90.0151 H   0  0  0  0  0  0  0  0  0  0  0  0
   53.1680  -23.9019  -92.2980 H   0  0  0  0  0  0  0  0  0  0  0  0
   51.9676  -25.0829  -92.7814 H   0  0  0  0  0  0  0  0  0  0  0  0
   50.2498  -23.5091  -92.5612 H   0  0  0  0  0  0  0  0  0  0  0  0
   52.3951  -21.5552  -91.7154 H   0  0  0  0  0  0  0  0  0  0  0  0
   50.7129  -21.1066  -92.1000 H   0  0  0  0  0  0  0  0  0  0  0  0
   51.0338  -22.1440  -90.7175 H   0  0  0  0  0  0  0  0  0  0  0  0
   51.4640  -23.6555  -94.6721 H   0  0  0  0  0  0  0  0  0  0  0  0
   50.8592  -22.0149  -94.4078 H   0  0  0  0  0  0  0  0  0  0  0  0
   52.5799  -22.3809  -94.1221 H   0  0  0  0  0  0  0  0  0  0  0  0
   50.1350  -26.1650  -90.9250 N   0  0  0  0  0  0  0  0  0  0  0  0
   48.7710  -26.6330  -90.7260 C   0  0  0  0  0  0  0  0  0  0  0  0
   48.4760  -26.9120  -89.2570 C   0  0  0  0  0  0  0  0  0  0  0  0
   47.3950  -26.5900  -88.7620 O   0  0  0  0  0  0  0  0  0  0  0  0
   48.5280  -27.8870  -91.5530 C   0  0  0  0  0  0  0  0  0  0  0  0
   50.7635  -26.7061  -91.5072 H   0  0  0  0  0  0  0  0  0  0  0  0
   48.0818  -25.8604  -91.0667 H   0  0  0  0  0  0  0  0  0  0  0  0
   49.3290  -28.6085  -91.3780 H   0  0  0  0  0  0  0  0  0  0  0  0
   47.5850  -28.3470  -91.2684 H   0  0  0  0  0  0  0  0  0  0  0  0
   48.5058  -27.6319  -92.6062 H   0  0  0  0  0  0  0  0  0  0  0  0
   49.4320  -27.5160  -88.5610 N   0  0  0  0  0  0  0  0  0  0  0  0
   49.2470  -27.8100  -87.1440 C   0  0  0  0  0  0  0  0  0  0  0  0
   48.8560  -26.5710  -86.3690 C   0  0  0  0  0  0  0  0  0  0  0  0
   47.9460  -26.6010  -85.5420 O   0  0  0  0  0  0  0  0  0  0  0  0
   50.5230  -28.3900  -86.5500 C   0  0  0  0  0  0  0  0  0  0  0  0
   50.7540  -29.7970  -86.9970 C   0  0  0  0  0  0  0  0  0  0  0  0
   51.6900  -30.4710  -86.5020 O   0  0  0  0  0  0  0  0  0  0  0  0
   49.9650  -30.2180  -87.8680 O   0  0  0  0  0  0  0  0  0  0  0  0
   50.2546  -27.8841  -89.0264 H   0  0  0  0  0  0  0  0  0  0  0  0
   48.4345  -28.5272  -87.0198 H   0  0  0  0  0  0  0  0  0  0  0  0
   51.3797  -27.7722  -86.8195 H   0  0  0  0  0  0  0  0  0  0  0  0
   50.4341  -28.3916  -85.4617 H   0  0  0  0  0  0  0  0  0  0  0  0
   49.4086  -25.7166  -86.5875 H   0  0  0  0  0  0  0  0  0  0  0  0
   47.9260  -23.6516  -86.8822 H   0  0  0  0  0  0  0  0  0  0  0  0
   47.6970  -23.8210  -87.7700 N   0  0  0  0  0  0  0  0  0  0  0  0
   46.4740  -23.2730  -88.3480 C   0  0  0  0  0  0  0  0  0  0  0  0
   45.2890  -23.9960  -87.7190 C   0  0  0  0  0  0  0  0  0  0  0  0
   44.2650  -23.3860  -87.4230 O   0  0  0  0  0  0  0  0  0  0  0  0
   46.4510  -23.4620  -89.8690 C   0  0  0  0  0  0  0  0  0  0  0  0
   47.4060  -22.5650  -90.6270 C   0  0  0  0  0  0  0  0  0  0  0  0
   47.3090  -22.7530  -92.1310 C   0  0  0  0  0  0  0  0  0  0  0  0
   46.4200  -22.1480  -92.7630 O   0  0  0  0  0  0  0  0  0  0  0  0
   48.1190  -23.5220  -92.6850 O   0  0  0  0  0  0  0  0  0  0  0  0
   48.3494  -24.3383  -88.3532 H   0  0  0  0  0  0  0  0  0  0  0  0
   46.3769  -22.2121  -88.1173 H   0  0  0  0  0  0  0  0  0  0  0  0
   46.6752  -24.4973  -90.1055 H   0  0  0  0  0  0  0  0  0  0  0  0
   45.4412  -23.2430  -90.2199 H   0  0  0  0  0  0  0  0  0  0  0  0
   47.1176  -21.5348  -90.4008 H   0  0  0  0  0  0  0  0  0  0  0  0
   48.4257  -22.6544  -90.2817 H   0  0  0  0  0  0  0  0  0  0  0  0
   45.4420  -25.3020  -87.5170 N   0  0  0  0  0  0  0  0  0  0  0  0
   44.3920  -26.1020  -86.9120 C   0  0  0  0  0  0  0  0  0  0  0  0
   44.0460  -25.5790  -85.5130 C   0  0  0  0  0  0  0  0  0  0  0  0
   42.8660  -25.3980  -85.1950 O   0  0  0  0  0  0  0  0  0  0  0  0
   44.8020  -27.5840  -86.8560 C   0  0  0  0  0  0  0  0  0  0  0  0
   44.7630  -28.3410  -88.2010 C   0  0  0  0  0  0  0  0  0  0  0  0
   45.3190  -29.7610  -88.0430 C   0  0  0  0  0  0  0  0  0  0  0  0
   43.3250  -28.3890  -88.7250 C   0  0  0  0  0  0  0  0  0  0  0  0
   46.3138  -25.7412  -87.7856 H   0  0  0  0  0  0  0  0  0  0  0  0
   43.4841  -25.9928  -87.4991 H   0  0  0  0  0  0  0  0  0  0  0  0
   45.8103  -27.6569  -86.4508 H   0  0  0  0  0  0  0  0  0  0  0  0
   44.1378  -28.1031  -86.1640 H   0  0  0  0  0  0  0  0  0  0  0  0
   45.3523  -27.8250  -88.9497 H   0  0  0  0  0  0  0  0  0  0  0  0
   44.7367  -30.3138  -87.3069 H   0  0  0  0  0  0  0  0  0  0  0  0
   45.2810  -30.2767  -89.0015 H   0  0  0  0  0  0  0  0  0  0  0  0
   46.3594  -29.7057  -87.7182 H   0  0  0  0  0  0  0  0  0  0  0  0
   42.9626  -27.3943  -88.9659 H   0  0  0  0  0  0  0  0  0  0  0  0
   43.3410  -28.9653  -89.6440 H   0  0  0  0  0  0  0  0  0  0  0  0
   42.6728  -28.8708  -87.9975 H   0  0  0  0  0  0  0  0  0  0  0  0
   44.8391  -25.3794  -84.8583 H   0  0  0  0  0  0  0  0  0  0  0  0
   37.6842  -29.8403  -92.1061 H   0  0  0  0  0  0  0  0  0  0  0  0
   38.2920  -30.1470  -91.4710 N   0  0  0  0  0  0  0  0  0  0  0  0
   39.5950  -29.4900  -91.3290 C   0  0  0  0  0  0  0  0  0  0  0  0
   40.3880  -29.2360  -92.6170 C   0  0  0  0  0  0  0  0  0  0  0  0
   40.8820  -28.1220  -92.8230 O   0  0  0  0  0  0  0  0  0  0  0  0
   40.4810  -30.2370  -90.3240 C   0  0  0  0  0  0  0  0  0  0  0  0
   40.8760  -31.6110  -90.7410 C   0  0  0  0  0  0  0  0  0  0  0  0
   40.1190  -32.7440  -90.6590 C   0  0  0  0  0  0  0  0  0  0  0  0
   42.1320  -32.0040  -91.3070 C   0  0  0  0  0  0  0  0  0  0  0  0
   40.8280  -33.8220  -91.1370 N   0  0  0  0  0  0  0  0  0  0  0  0
   42.0660  -33.3960  -91.5420 C   0  0  0  0  0  0  0  0  0  0  0  0
   43.3050  -31.3150  -91.6390 C   0  0  0  0  0  0  0  0  0  0  0  0
   43.1340  -34.1150  -92.0950 C   0  0  0  0  0  0  0  0  0  0  0  0
   44.3660  -32.0300  -92.1900 C   0  0  0  0  0  0  0  0  0  0  0  0
   44.2720  -33.4160  -92.4120 C   0  0  0  0  0  0  0  0  0  0  0  0
   38.0055  -30.8391  -90.7872 H   0  0  0  0  0  0  0  0  0  0  0  0
   39.4139  -28.5003  -90.9082 H   0  0  0  0  0  0  0  0  0  0  0  0
   41.3790  -29.6495  -90.1768 H   0  0  0  0  0  0  0  0  0  0  0  0
   39.9789  -30.2877  -89.3590 H   0  0  0  0  0  0  0  0  0  0  0  0
   39.1168  -32.7678  -90.2648 H   0  0  0  0  0  0  0  0  0  0  0  0
   40.4766  -34.7714  -91.1418 H   0  0  0  0  0  0  0  0  0  0  0  0
   43.3586  -30.2419  -91.5348 H   0  0  0  0  0  0  0  0  0  0  0  0
   43.0633  -35.1797  -92.2602 H   0  0  0  0  0  0  0  0  0  0  0  0
   45.1310  -31.4811  -92.6669 H   0  0  0  0  0  0  0  0  0  0  0  0
   45.1035  -33.9349  -92.8747 H   0  0  0  0  0  0  0  0  0  0  0  0
   40.5140  -30.2410  -93.4820 N   0  0  0  0  0  0  0  0  0  0  0  0
   41.2640  -30.0620  -94.7200 C   0  0  0  0  0  0  0  0  0  0  0  0
   40.6220  -29.0290  -95.6510 C   0  0  0  0  0  0  0  0  0  0  0  0
   41.3200  -28.2040  -96.2380 O   0  0  0  0  0  0  0  0  0  0  0  0
   41.4240  -31.4000  -95.4510 C   0  0  0  0  0  0  0  0  0  0  0  0
   42.3740  -31.3550  -96.6540 C   0  0  0  0  0  0  0  0  0  0  0  0
   44.0740  -30.8040  -96.2920 S   0  0  0  0  0  0  0  0  0  0  0  0
   44.7630  -32.2990  -95.6310 C   0  0  0  0  0  0  0  0  0  0  0  0
   40.1751  -31.1534  -93.2127 H   0  0  0  0  0  0  0  0  0  0  0  0
   42.2584  -29.6907  -94.4660 H   0  0  0  0  0  0  0  0  0  0  0  0
   41.8220  -32.1272  -94.7422 H   0  0  0  0  0  0  0  0  0  0  0  0
   40.4490  -31.7631  -95.7659 H   0  0  0  0  0  0  0  0  0  0  0  0
   42.4307  -32.2867  -97.1833 H   0  0  0  0  0  0  0  0  0  0  0  0
   41.9554  -30.6436  -97.3654 H   0  0  0  0  0  0  0  0  0  0  0  0
   44.8757  -33.0336  -96.4283 H   0  0  0  0  0  0  0  0  0  0  0  0
   45.7369  -32.0977  -95.1875 H   0  0  0  0  0  0  0  0  0  0  0  0
   44.0951  -32.7007  -94.8735 H   0  0  0  0  0  0  0  0  0  0  0  0
   39.5829  -29.0659  -95.7642 H   0  0  0  0  0  0  0  0  0  0  0  0
   40.8361  -24.9994  -94.4820 H   0  0  0  0  0  0  0  0  0  0  0  0
   41.5090  -25.6240  -94.3350 N   0  0  0  0  0  0  0  0  0  0  0  0
   42.8920  -25.2450  -94.5740 C   0  0  0  0  0  0  0  0  0  0  0  0
   43.0630  -24.8710  -96.0530 C   0  0  0  0  0  0  0  0  0  0  0  0
   43.7160  -23.8820  -96.3850 O   0  0  0  0  0  0  0  0  0  0  0  0
   43.8380  -26.3890  -94.2080 C   0  0  0  0  0  0  0  0  0  0  0  0
   44.1630  -26.6300  -92.7370 C   0  0  0  0  0  0  0  0  0  0  0  0
   45.2120  -27.7110  -92.6460 C   0  0  0  0  0  0  0  0  0  0  0  0
   44.6830  -25.3670  -92.0940 C   0  0  0  0  0  0  0  0  0  0  0  0
   41.2805  -26.5475  -93.9776 H   0  0  0  0  0  0  0  0  0  0  0  0
   43.1408  -24.3568  -93.9991 H   0  0  0  0  0  0  0  0  0  0  0  0
   43.4618  -27.3171  -94.6416 H   0  0  0  0  0  0  0  0  0  0  0  0
   44.7840  -26.1744  -94.6802 H   0  0  0  0  0  0  0  0  0  0  0  0
   43.2657  -26.9536  -92.2111 H   0  0  0  0  0  0  0  0  0  0  0  0
   46.1339  -27.3807  -93.1262 H   0  0  0  0  0  0  0  0  0  0  0  0
   45.4053  -27.9236  -91.5955 H   0  0  0  0  0  0  0  0  0  0  0  0
   44.8549  -28.6193  -93.1292 H   0  0  0  0  0  0  0  0  0  0  0  0
   43.9442  -24.5743  -92.0991 H   0  0  0  0  0  0  0  0  0  0  0  0
   44.9277  -25.5922  -91.0571 H   0  0  0  0  0  0  0  0  0  0  0  0
   45.5894  -25.0294  -92.6006 H   0  0  0  0  0  0  0  0  0  0  0  0
   42.4440  -25.6460  -96.9370 N   0  0  0  0  0  0  0  0  0  0  0  0
   42.5550  -25.3780  -98.3640 C   0  0  0  0  0  0  0  0  0  0  0  0
   41.8590  -24.0920  -98.8140 C   0  0  0  0  0  0  0  0  0  0  0  0
   42.3650  -23.3930  -99.6870 O   0  0  0  0  0  0  0  0  0  0  0  0
   42.0600  -26.5990  -99.1930 C   0  0  0  0  0  0  0  0  0  0  0  0
   43.0980  -27.7290  -99.0760 C   0  0  0  0  0  0  0  0  0  0  0  0
   41.8620  -26.2130 -100.6490 C   0  0  0  0  0  0  0  0  0  0  0  0
   42.7500  -29.0090  -99.7940 C   0  0  0  0  0  0  0  0  0  0  0  0
   41.9453  -26.4693  -96.6086 H   0  0  0  0  0  0  0  0  0  0  0  0
   43.6081  -25.2635  -98.6029 H   0  0  0  0  0  0  0  0  0  0  0  0
   41.1035  -26.9429  -98.7947 H   0  0  0  0  0  0  0  0  0  0  0  0
   44.0601  -27.3782  -99.4538 H   0  0  0  0  0  0  0  0  0  0  0  0
   43.2345  -27.9749  -98.0230 H   0  0  0  0  0  0  0  0  0  0  0  0
   41.5849  -27.0821 -101.2420 H   0  0  0  0  0  0  0  0  0  0  0  0
   41.0441  -25.5014 -100.7565 H   0  0  0  0  0  0  0  0  0  0  0  0
   42.7804  -25.7841 -101.0547 H   0  0  0  0  0  0  0  0  0  0  0  0
   42.8730  -28.8794 -100.8662 H   0  0  0  0  0  0  0  0  0  0  0  0
   43.4217  -29.8019  -99.4643 H   0  0  0  0  0  0  0  0  0  0  0  0
   41.7224  -29.2885  -99.5649 H   0  0  0  0  0  0  0  0  0  0  0  0
   40.9630  -23.8295  -98.3448 H   0  0  0  0  0  0  0  0  0  0  0  0
   43.8577  -20.3912  -97.8150 H   0  0  0  0  0  0  0  0  0  0  0  0
   44.3730  -21.1110  -98.1140 N   0  0  0  0  0  0  0  0  0  0  0  0
   45.4760  -20.9210  -99.0560 C   0  0  0  0  0  0  0  0  0  0  0  0
   44.9420  -20.3730 -100.3790 C   0  0  0  0  0  0  0  0  0  0  0  0
   45.6110  -19.5930 -101.0650 O   0  0  0  0  0  0  0  0  0  0  0  0
   46.2420  -22.2500  -99.3100 C   0  0  0  0  0  0  0  0  0  0  0  0
   45.2850  -23.3270  -99.7050 C   0  0  0  0  0  0  0  0  0  0  0  0
   47.2930  -22.0610 -100.3990 C   0  0  0  0  0  0  0  0  0  0  0  0
   44.1690  -22.0353  -97.7519 H   0  0  0  0  0  0  0  0  0  0  0  0
   46.1826  -20.1899  -98.6635 H   0  0  0  0  0  0  0  0  0  0  0  0
   46.7422  -22.5461  -98.3874 H   0  0  0  0  0  0  0  0  0  0  0  0
   45.8508  -24.2455  -99.8658 H   0  0  0  0  0  0  0  0  0  0  0  0
   44.6189  -23.5094  -98.8763 H   0  0  0  0  0  0  0  0  0  0  0  0
   44.7666  -23.1038 -100.6302 H   0  0  0  0  0  0  0  0  0  0  0  0
   47.9347  -21.2147 -100.1561 H   0  0  0  0  0  0  0  0  0  0  0  0
   47.9115  -22.9513 -100.4671 H   0  0  0  0  0  0  0  0  0  0  0  0
   46.8357  -21.9040 -101.3749 H   0  0  0  0  0  0  0  0  0  0  0  0
   43.9823  -20.6913 -100.6470 H   0  0  0  0  0  0  0  0  0  0  0  0
   43.4009  -16.2551 -100.4215 H   0  0  0  0  0  0  0  0  0  0  0  0
   44.1270  -16.6150  -99.9650 N   0  0  0  0  0  0  0  0  0  0  0  0
   45.3790  -15.8800  -99.8600 C   0  0  0  0  0  0  0  0  0  0  0  0
   46.0450  -15.7510 -101.2290 C   0  0  0  0  0  0  0  0  0  0  0  0
   46.8760  -14.8770 -101.4360 O   0  0  0  0  0  0  0  0  0  0  0  0
   46.3350  -16.5920  -98.8910 C   0  0  0  0  0  0  0  0  0  0  0  0
   45.8360  -16.6700  -97.4570 C   0  0  0  0  0  0  0  0  0  0  0  0
   46.9760  -16.9620  -96.4770 C   0  0  0  0  0  0  0  0  0  0  0  0
   47.4670  -18.3420  -96.5530 N   0  0  0  0  0  0  0  0  0  0  0  0
   46.8860  -19.3890  -95.9620 C   0  0  0  0  0  0  0  0  0  0  0  0
   45.7810  -19.2190  -95.2430 N   0  0  0  0  0  0  0  0  0  0  0  0
   47.4130  -20.6100  -96.0780 N   0  0  0  0  0  0  0  0  0  0  0  0
   44.0156  -17.5002  -99.4742 H   0  0  0  0  0  0  0  0  0  0  0  0
   45.1972  -14.8631  -99.5097 H   0  0  0  0  0  0  0  0  0  0  0  0
   46.5289  -17.6043  -99.2506 H   0  0  0  0  0  0  0  0  0  0  0  0
   47.2822  -16.0494  -98.8983 H   0  0  0  0  0  0  0  0  0  0  0  0
   45.4815  -15.6704  -97.2037 H   0  0  0  0  0  0  0  0  0  0  0  0
   45.0120  -17.3020  -97.2603 H   0  0  0  0  0  0  0  0  0  0  0  0
   47.8062  -16.2822  -96.6818 H   0  0  0  0  0  0  0  0  0  0  0  0
   46.6342  -16.7459  -95.4624 H   0  0  0  0  0  0  0  0  0  0  0  0
   48.2350  -18.5500  -97.1794 H   0  0  0  0  0  0  0  0  0  0  0  0
   45.3683  -18.3074  -95.1758 H   0  0  0  0  0  0  0  0  0  0  0  0
   45.4137  -20.0241  -94.7544 H   0  0  0  0  0  0  0  0  0  0  0  0
   48.4022  -20.6154  -96.2496 H   0  0  0  0  0  0  0  0  0  0  0  0
   47.0826  -21.2920  -95.4106 H   0  0  0  0  0  0  0  0  0  0  0  0
   45.7385  -16.4254 -101.9655 H   0  0  0  0  0  0  0  0  0  0  0  0
   50.1752  -19.4785  -99.4457 H   0  0  0  0  0  0  0  0  0  0  0  0
   50.6800  -20.2200  -99.2020 N   0  0  0  0  0  0  0  0  0  0  0  0
   50.4080  -20.9230  -97.9600 C   0  0  0  0  0  0  0  0  0  0  0  0
   50.6360  -19.9710  -96.7940 C   0  0  0  0  0  0  0  0  0  0  0  0
   49.9920  -20.0800  -95.7450 O   0  0  0  0  0  0  0  0  0  0  0  0
   51.3140  -22.1470  -97.8450 C   0  0  0  0  0  0  0  0  0  0  0  0
   50.8140  -23.2560  -98.7130 C   0  0  0  0  0  0  0  0  0  0  0  0
   49.7000  -24.0130  -98.3320 C   0  0  0  0  0  0  0  0  0  0  0  0
   51.3510  -23.4590  -99.9760 C   0  0  0  0  0  0  0  0  0  0  0  0
   49.1290  -24.9330  -99.1970 C   0  0  0  0  0  0  0  0  0  0  0  0
   50.7910  -24.3770 -100.8510 C   0  0  0  0  0  0  0  0  0  0  0  0
   49.6790  -25.1060 -100.4570 C   0  0  0  0  0  0  0  0  0  0  0  0
   49.1010  -25.9860 -101.3370 O   0  0  0  0  0  0  0  0  0  0  0  0
   51.4514  -20.5141  -99.7914 H   0  0  0  0  0  0  0  0  0  0  0  0
   49.3683  -21.2481  -97.9379 H   0  0  0  0  0  0  0  0  0  0  0  0
   52.3408  -21.8931  -98.0990 H   0  0  0  0  0  0  0  0  0  0  0  0
   51.3070  -22.5019  -96.8163 H   0  0  0  0  0  0  0  0  0  0  0  0
   49.2719  -23.8708  -97.3475 H   0  0  0  0  0  0  0  0  0  0  0  0
   52.2005  -22.8677 -100.2957 H   0  0  0  0  0  0  0  0  0  0  0  0
   48.2726  -25.5205  -98.9062 H   0  0  0  0  0  0  0  0  0  0  0  0
   51.2033  -24.5134 -101.8384 H   0  0  0  0  0  0  0  0  0  0  0  0
   49.6362  -26.2244 -102.1042 H   0  0  0  0  0  0  0  0  0  0  0  0
   51.3591  -19.2353  -96.9559 H   0  0  0  0  0  0  0  0  0  0  0  0
   53.9767  -33.2767 -105.1114 H   0  0  0  0  0  0  0  0  0  0  0  0
   53.7400  -32.4050 -105.3390 N   0  0  0  0  0  0  0  0  0  0  0  0
   52.4040  -31.8760 -105.1170 C   0  0  0  0  0  0  0  0  0  0  0  0
   51.8810  -31.1410 -106.3300 C   0  0  0  0  0  0  0  0  0  0  0  0
   50.9480  -30.3500 -106.2190 O   0  0  0  0  0  0  0  0  0  0  0  0
   52.4240  -30.9120 -103.9240 C   0  0  0  0  0  0  0  0  0  0  0  0
   52.8040  -31.4940 -102.5600 C   0  0  0  0  0  0  0  0  0  0  0  0
   52.8700  -30.3770 -101.5440 C   0  0  0  0  0  0  0  0  0  0  0  0
   51.7780  -32.5420 -102.1320 C   0  0  0  0  0  0  0  0  0  0  0  0
   54.4689  -31.7862 -105.6653 H   0  0  0  0  0  0  0  0  0  0  0  0
   51.6965  -32.6817 -104.9244 H   0  0  0  0  0  0  0  0  0  0  0  0
   53.1217  -30.1054 -104.1564 H   0  0  0  0  0  0  0  0  0  0  0  0
   51.4368  -30.4614 -103.8094 H   0  0  0  0  0  0  0  0  0  0  0  0
   53.7833  -31.9572 -102.6193 H   0  0  0  0  0  0  0  0  0  0  0  0
   51.8952  -29.8990 -101.4454 H   0  0  0  0  0  0  0  0  0  0  0  0
   53.1717  -30.7859 -100.5804 H   0  0  0  0  0  0  0  0  0  0  0  0
   53.6045  -29.6357 -101.8530 H   0  0  0  0  0  0  0  0  0  0  0  0
   51.7523  -33.3565 -102.8482 H   0  0  0  0  0  0  0  0  0  0  0  0
   52.0774  -32.9570 -101.1718 H   0  0  0  0  0  0  0  0  0  0  0  0
   50.7913  -32.0909 -102.0445 H   0  0  0  0  0  0  0  0  0  0  0  0
   52.3534  -31.3359 -107.2386 H   0  0  0  0  0  0  0  0  0  0  0  0
   47.8877  -31.8126 -107.8482 H   0  0  0  0  0  0  0  0  0  0  0  0
   48.1440  -31.8980 -106.9590 N   0  0  0  0  0  0  0  0  0  0  0  0
   47.3360  -31.3340 -105.8920 C   0  0  0  0  0  0  0  0  0  0  0  0
   47.2990  -29.8100 -105.9410 C   0  0  0  0  0  0  0  0  0  0  0  0
   46.2310  -29.2080 -105.7980 O   0  0  0  0  0  0  0  0  0  0  0  0
   47.8610  -31.7820 -104.5280 C   0  0  0  0  0  0  0  0  0  0  0  0
   46.7920  -32.2530 -103.5440 C   0  0  0  0  0  0  0  0  0  0  0  0
   47.4200  -32.4790 -102.1810 C   0  0  0  0  0  0  0  0  0  0  0  0
   45.6730  -31.2300 -103.4600 C   0  0  0  0  0  0  0  0  0  0  0  0
   49.0404  -32.3134 -106.7511 H   0  0  0  0  0  0  0  0  0  0  0  0
   46.3198  -31.6949 -106.0384 H   0  0  0  0  0  0  0  0  0  0  0  0
   48.5539  -32.6150 -104.6613 H   0  0  0  0  0  0  0  0  0  0  0  0
   48.4371  -30.9708 -104.0775 H   0  0  0  0  0  0  0  0  0  0  0  0
   46.3622  -33.1916 -103.8963 H   0  0  0  0  0  0  0  0  0  0  0  0
   48.1837  -31.7270 -101.9841 H   0  0  0  0  0  0  0  0  0  0  0  0
   46.6782  -32.4007 -101.4010 H   0  0  0  0  0  0  0  0  0  0  0  0
   47.8642  -33.4647 -102.1463 H   0  0  0  0  0  0  0  0  0  0  0  0
   45.1801  -31.0751 -104.4137 H   0  0  0  0  0  0  0  0  0  0  0  0
   44.9039  -31.5885 -102.8003 H   0  0  0  0  0  0  0  0  0  0  0  0
   46.0634  -30.2813 -103.0878 H   0  0  0  0  0  0  0  0  0  0  0  0
   48.2061  -29.3156 -106.0943 H   0  0  0  0  0  0  0  0  0  0  0  0
   43.6581  -27.2927 -107.2024 H   0  0  0  0  0  0  0  0  0  0  0  0
   44.2890  -27.0140 -106.5820 N   0  0  0  0  0  0  0  0  0  0  0  0
   43.9940  -25.9120 -105.6880 C   0  0  0  0  0  0  0  0  0  0  0  0
   43.9710  -24.6420 -106.5350 C   0  0  0  0  0  0  0  0  0  0  0  0
   43.2390  -23.6970 -106.2400 O   0  0  0  0  0  0  0  0  0  0  0  0
   45.0620  -25.7990 -104.5860 C   0  0  0  0  0  0  0  0  0  0  0  0
   44.9190  -26.9820 -103.6240 C   0  0  0  0  0  0  0  0  0  0  0  0
   44.9360  -24.4720 -103.8590 C   0  0  0  0  0  0  0  0  0  0  0  0
   45.9850  -27.0660 -102.5740 C   0  0  0  0  0  0  0  0  0  0  0  0
   45.1572  -27.5325 -106.4813 H   0  0  0  0  0  0  0  0  0  0  0  0
   43.0141  -26.0346 -105.2291 H   0  0  0  0  0  0  0  0  0  0  0  0
   46.0473  -25.8434 -105.0440 H   0  0  0  0  0  0  0  0  0  0  0  0
   43.9531  -26.9156 -103.1217 H   0  0  0  0  0  0  0  0  0  0  0  0
   44.9265  -27.9158 -104.1779 H   0  0  0  0  0  0  0  0  0  0  0  0
   45.6965  -24.3898 -103.0841 H   0  0  0  0  0  0  0  0  0  0  0  0
   45.0751  -23.6216 -104.5168 H   0  0  0  0  0  0  0  0  0  0  0  0
   43.9572  -24.4087 -103.3891 H   0  0  0  0  0  0  0  0  0  0  0  0
   45.9074  -26.2377 -101.8705 H   0  0  0  0  0  0  0  0  0  0  0  0
   45.8682  -27.9953 -102.0160 H   0  0  0  0  0  0  0  0  0  0  0  0
   46.9697  -27.0597 -103.0415 H   0  0  0  0  0  0  0  0  0  0  0  0
   44.5951  -24.6302 -107.3737 H   0  0  0  0  0  0  0  0  0  0  0  0
   43.3565  -35.3872 -101.8098 H   0  0  0  0  0  0  0  0  0  0  0  0
   43.3600  -34.5680 -101.3680 N   0  0  0  0  0  0  0  0  0  0  0  0
   44.5110  -34.1380 -100.5810 C   0  0  0  0  0  0  0  0  0  0  0  0
   44.6240  -35.0040  -99.3250 C   0  0  0  0  0  0  0  0  0  0  0  0
   45.7120  -35.4160  -98.9390 O   0  0  0  0  0  0  0  0  0  0  0  0
   44.3680  -32.6790 -100.1930 C   0  0  0  0  0  0  0  0  0  0  0  0
   42.5870  -33.9265 -101.4926 H   0  0  0  0  0  0  0  0  0  0  0  0
   45.4238  -34.2674 -101.1632 H   0  0  0  0  0  0  0  0  0  0  0  0
   43.5616  -32.5711  -99.4667 H   0  0  0  0  0  0  0  0  0  0  0  0
   45.2813  -32.3158  -99.7207 H   0  0  0  0  0  0  0  0  0  0  0  0
   44.1027  -32.0563 -101.0328 H   0  0  0  0  0  0  0  0  0  0  0  0
   43.7342  -35.2194  -98.8251 H   0  0  0  0  0  0  0  0  0  0  0  0
   48.0939  -37.7910  -98.6948 H   0  0  0  0  0  0  0  0  0  0  0  0
   47.6640  -37.2350  -98.0870 N   0  0  0  0  0  0  0  0  0  0  0  0
   48.1570  -37.0120  -96.7350 C   0  0  0  0  0  0  0  0  0  0  0  0
   48.3380  -38.3040  -95.9450 C   0  0  0  0  0  0  0  0  0  0  0  0
   49.1840  -38.3720  -95.0520 O   0  0  0  0  0  0  0  0  0  0  0  0
   47.2070  -36.0480  -96.0110 C   0  0  0  0  0  0  0  0  0  0  0  0
   47.2560  -36.1330  -94.5090 C   0  0  0  0  0  0  0  0  0  0  0  0
   46.4090  -37.0020  -93.8190 C   0  0  0  0  0  0  0  0  0  0  0  0
   48.1160  -35.3250  -93.7820 C   0  0  0  0  0  0  0  0  0  0  0  0
   46.4160  -37.0570  -92.4230 C   0  0  0  0  0  0  0  0  0  0  0  0
   48.1290  -35.3770  -92.3960 C   0  0  0  0  0  0  0  0  0  0  0  0
   47.2800  -36.2410  -91.7100 C   0  0  0  0  0  0  0  0  0  0  0  0
   46.8447  -36.7190  -98.3875 H   0  0  0  0  0  0  0  0  0  0  0  0
   49.1423  -36.5472  -96.7747 H   0  0  0  0  0  0  0  0  0  0  0  0
   47.3866  -35.0122  -96.1503 H   0  0  0  0  0  0  0  0  0  0  0  0
   46.1865  -36.2397  -96.3196 H   0  0  0  0  0  0  0  0  0  0  0  0
   45.7284  -37.6228  -94.3758 H   0  0  0  0  0  0  0  0  0  0  0  0
   48.7967  -34.6559  -94.2903 H   0  0  0  0  0  0  0  0  0  0  0  0
   45.7580  -37.7275  -91.8950 H   0  0  0  0  0  0  0  0  0  0  0  0
   48.8698  -34.8261  -91.8437 H   0  0  0  0  0  0  0  0  0  0  0  0
   47.3206  -36.2977  -90.6294 H   0  0  0  0  0  0  0  0  0  0  0  0
   47.7171  -39.1065  -96.1997 H   0  0  0  0  0  0  0  0  0  0  0  0
   51.1087  -41.5745  -97.8366 H   0  0  0  0  0  0  0  0  0  0  0  0
   51.2760  -40.6860  -97.6090 N   0  0  0  0  0  0  0  0  0  0  0  0
   52.5780  -40.2110  -97.1480 C   0  0  0  0  0  0  0  0  0  0  0  0
   52.8240  -40.5620  -95.6800 C   0  0  0  0  0  0  0  0  0  0  0  0
   53.9570  -40.4880  -95.2090 O   0  0  0  0  0  0  0  0  0  0  0  0
   52.6850  -38.6810  -97.2180 C   0  0  0  0  0  0  0  0  0  0  0  0
   52.3430  -38.1730  -98.6110 C   0  0  0  0  0  0  0  0  0  0  0  0
   54.0940  -38.2430  -96.8330 C   0  0  0  0  0  0  0  0  0  0  0  0
   52.4510  -36.6700  -98.7260 C   0  0  0  0  0  0  0  0  0  0  0  0
   50.5394  -40.0012  -97.7569 H   0  0  0  0  0  0  0  0  0  0  0  0
   53.3745  -40.6529  -97.7455 H   0  0  0  0  0  0  0  0  0  0  0  0
   51.9404  -38.2544  -96.5566 H   0  0  0  0  0  0  0  0  0  0  0  0
   53.0947  -38.5796  -99.2896 H   0  0  0  0  0  0  0  0  0  0  0  0
   51.4368  -38.5386  -99.0173 H   0  0  0  0  0  0  0  0  0  0  0  0
   54.2593  -37.1874  -97.0227 H   0  0  0  0  0  0  0  0  0  0  0  0
   54.2844  -38.3267  -95.7725 H   0  0  0  0  0  0  0  0  0  0  0  0
   54.8437  -38.8101  -97.3849 H   0  0  0  0  0  0  0  0  0  0  0  0
   53.4877  -36.3463  -98.8150 H   0  0  0  0  0  0  0  0  0  0  0  0
   51.9302  -36.3332  -99.6178 H   0  0  0  0  0  0  0  0  0  0  0  0
   51.9764  -36.1979  -97.8706 H   0  0  0  0  0  0  0  0  0  0  0  0
   51.9885  -40.8261  -95.1078 H   0  0  0  0  0  0  0  0  0  0  0  0
   51.2227  -37.6106  -90.3244 H   0  0  0  0  0  0  0  0  0  0  0  0
   50.3370  -37.8760  -90.0590 N   0  0  0  0  0  0  0  0  0  0  0  0
   49.6990  -38.0700  -88.7240 C   0  0  0  0  0  0  0  0  0  0  0  0
   49.3700  -37.4210  -87.3480 C   0  0  0  0  0  0  0  0  0  0  0  0
   49.6660  -37.8290  -86.1900 O   0  0  0  0  0  0  0  0  0  0  0  0
   50.0480  -39.5520  -88.3870 C   0  0  0  0  0  0  0  0  0  0  0  0
   51.5080  -39.8610  -88.0140 C   0  0  0  0  0  0  0  0  0  0  0  0
   51.8690  -39.6000  -86.5400 C   0  0  0  0  0  0  0  0  0  0  0  0
   52.1880  -38.4380  -86.2120 O   0  0  0  0  0  0  0  0  0  0  0  0
   51.8610  -40.5480  -85.7120 O   0  0  0  0  0  0  0  0  0  0  0  0
   48.7250  -36.3340  -87.1590 O   0  0  0  0  0  0  0  0  0  0  0  0
   49.7858  -38.1914  -90.8342 H   0  0  0  0  0  0  0  0  0  0  0  0
   48.6555  -38.1157  -89.0175 H   0  0  0  0  0  0  0  0  0  0  0  0
   49.3899  -39.9337  -87.6046 H   0  0  0  0  0  0  0  0  0  0  0  0
   49.8134  -40.1515  -89.2698 H   0  0  0  0  0  0  0  0  0  0  0  0
   51.6565  -40.9280  -88.2121 H   0  0  0  0  0  0  0  0  0  0  0  0
   52.2052  -39.3551  -88.6801 H   0  0  0  0  0  0  0  0  0  0  0  0
   48.2439  -27.9395  -96.0908 C   0  0  0  0  0  0  0  0  0  0  0  0
   48.9181  -27.1350  -95.1653 C   0  0  0  0  0  0  0  0  0  0  0  0
   48.4988  -25.8402  -94.8897 C   0  0  0  0  0  0  0  0  0  0  0  0
   47.4193  -25.2954  -95.5986 C   0  0  0  0  0  0  0  0  0  0  0  0
   47.0123  -24.0258  -95.3787 O   0  0  0  0  0  0  0  0  0  0  0  0
   46.7619  -26.0854  -96.5386 C   0  0  0  0  0  0  0  0  0  0  0  0
   47.1561  -27.3911  -96.7504 C   0  0  0  0  0  0  0  0  0  0  0  0
   48.5988  -29.3497  -96.3509 C   0  0  0  0  0  0  0  0  0  0  0  0
   48.9896  -29.8032  -97.5433 C   0  0  0  0  0  0  0  0  0  0  0  0
   49.2523  -28.9403  -98.7542 C   0  0  0  0  0  0  0  0  0  0  0  0
   48.2903  -29.2088  -99.9241 C   0  0  0  0  0  0  0  0  0  0  0  0
   49.2899  -31.2354  -97.7595 C   0  0  0  0  0  0  0  0  0  0  0  0
   50.5805  -31.6911  -98.0285 C   0  0  0  0  0  0  0  0  0  0  0  0
   50.8046  -33.0065  -98.3781 C   0  0  0  0  0  0  0  0  0  0  0  0
   49.7391  -33.8852  -98.4942 C   0  0  0  0  0  0  0  0  0  0  0  0
   48.4623  -33.4618  -98.1821 C   0  0  0  0  0  0  0  0  0  0  0  0
   48.2416  -32.1552  -97.7812 C   0  0  0  0  0  0  0  0  0  0  0  0
   48.6203  -30.2177  -95.1537 C   0  0  0  0  0  0  0  0  0  0  0  0
   49.7814  -30.9089  -94.7924 C   0  0  0  0  0  0  0  0  0  0  0  0
   49.8937  -31.6019  -93.6038 C   0  0  0  0  0  0  0  0  0  0  0  0
   48.8159  -31.6390  -92.7179 C   0  0  0  0  0  0  0  0  0  0  0  0
   48.9545  -32.3796  -91.5607 O   0  0  0  0  0  0  0  0  0  0  0  0
   47.6530  -30.9833  -93.0879 C   0  0  0  0  0  0  0  0  0  0  0  0
   47.5484  -30.2868  -94.2789 C   0  0  0  0  0  0  0  0  0  0  0  0
   48.4096  -31.9407  -90.3277 C   0  0  0  0  0  0  0  0  0  0  0  0
   48.4520  -33.1143  -89.3601 C   0  0  0  0  0  0  0  0  0  0  0  0
   49.8123  -33.3992  -88.8228 N   0  0  0  0  0  0  0  0  0  0  0  0
   50.9145  -32.6622  -89.4913 C   0  0  0  0  0  0  0  0  0  0  0  0
   49.8425  -33.1266  -87.3695 C   0  0  0  0  0  0  0  0  0  0  0  0
   46.2013  -23.8529  -95.8763 H   0  0  0  0  0  0  0  0  0  0  0  0
   49.7769  -27.5305  -94.6358 H   0  0  0  0  0  0  0  0  0  0  0  0
   48.9746  -25.2317  -94.1375 H   0  0  0  0  0  0  0  0  0  0  0  0
   50.0084  -34.4025  -88.9444 H   0  0  0  0  0  0  0  0  0  0  0  0
   45.9092  -25.6784  -97.0643 H   0  0  0  0  0  0  0  0  0  0  0  0
   46.6010  -28.0045  -97.4464 H   0  0  0  0  0  0  0  0  0  0  0  0
   50.2733  -29.1257  -99.0857 H   0  0  0  0  0  0  0  0  0  0  0  0
   49.1423  -27.8954  -98.4620 H   0  0  0  0  0  0  0  0  0  0  0  0
   47.2752  -28.9555  -99.6327 H   0  0  0  0  0  0  0  0  0  0  0  0
   48.5724  -28.5880 -100.7702 H   0  0  0  0  0  0  0  0  0  0  0  0
   48.3165  -30.2578 -100.2145 H   0  0  0  0  0  0  0  0  0  0  0  0
   51.4219  -31.0087  -97.9740 H   0  0  0  0  0  0  0  0  0  0  0  0
   51.8070  -33.3437  -98.6088 H   0  0  0  0  0  0  0  0  0  0  0  0
   49.9014  -34.8931  -98.8481 H   0  0  0  0  0  0  0  0  0  0  0  0
   47.6412  -34.1544  -98.2867 H   0  0  0  0  0  0  0  0  0  0  0  0
   47.2423  -31.8037  -97.5738 H   0  0  0  0  0  0  0  0  0  0  0  0
   50.6375  -30.8687  -95.4499 H   0  0  0  0  0  0  0  0  0  0  0  0
   50.8050  -32.1331  -93.3766 H   0  0  0  0  0  0  0  0  0  0  0  0
   46.8255  -30.9653  -92.4023 H   0  0  0  0  0  0  0  0  0  0  0  0
   46.6348  -29.7577  -94.5090 H   0  0  0  0  0  0  0  0  0  0  0  0
   47.3590  -31.6555  -90.4470 H   0  0  0  0  0  0  0  0  0  0  0  0
   48.9538  -31.0835  -89.9132 H   0  0  0  0  0  0  0  0  0  0  0  0
   48.0910  -34.0013  -89.8831 H   0  0  0  0  0  0  0  0  0  0  0  0
   47.7995  -32.8925  -88.5191 H   0  0  0  0  0  0  0  0  0  0  0  0
   51.8596  -33.0852  -89.1521 H   0  0  0  0  0  0  0  0  0  0  0  0
   50.8423  -32.7713  -90.5687 H   0  0  0  0  0  0  0  0  0  0  0  0
   50.8694  -31.6156  -89.1748 H   0  0  0  0  0  0  0  0  0  0  0  0
   49.5490  -32.0856  -87.2281 H   0  0  0  0  0  0  0  0  0  0  0  0
   49.2104  -33.8441  -86.8528 H   0  0  0  0  0  0  0  0  0  0  0  0
   50.8617  -33.2266  -86.9982 H   0  0  0  0  0  0  0  0  0  0  0  0
   44.5550  -21.9290  -94.4750 O   0  0  0  0  0  0  0  0  0  0  0  0
   45.2676  -22.0565  -93.7803 H   0  0  0  0  0  0  0  0  0  0  0  0
   44.5994  -22.7459  -94.9847 H   0  0  0  0  0  0  0  0  0  0  0  0
   44.8500  -34.5100  -88.0910 O   0  0  0  0  0  0  0  0  0  0  0  0
   45.7573  -34.7476  -87.8632 H   0  0  0  0  0  0  0  0  0  0  0  0
   44.9407  -33.9752  -88.8825 H   0  0  0  0  0  0  0  0  0  0  0  0
  1  2  1  0  0  0  0
  2  3  1  0  0  0  0
  3  4  1  0  0  0  0
  4  5  2  0  0  0  0
  3  6  1  0  0  0  0
  6  7  1  0  0  0  0
  7  8  1  0  0  0  0
  7  9  1  0  0  0  0
  2 10  1  0  0  0  0
  3 11  1  0  0  0  0
  6 12  1  0  0  0  0
  6 13  1  0  0  0  0
  7 14  1  0  0  0  0
  8 15  1  0  0  0  0
  8 16  1  0  0  0  0
  8 17  1  0  0  0  0
  9 18  1  0  0  0  0
  9 19  1  0  0  0  0
  9 20  1  0  0  0  0
  4 21  1  0  0  0  0
 22 23  1  0  0  0  0
 23 24  1  0  0  0  0
 24 25  1  0  0  0  0
 25 26  2  0  0  0  0
 24 27  1  0  0  0  0
 27 28  1  0  0  0  0
 28 29  1  0  0  0  0
 28 30  1  0  0  0  0
 23 31  1  0  0  0  0
 24 32  1  0  0  0  0
 27 33  1  0  0  0  0
 27 34  1  0  0  0  0
 28 35  1  0  0  0  0
 29 36  1  0  0  0  0
 29 37  1  0  0  0  0
 29 38  1  0  0  0  0
 30 39  1  0  0  0  0
 30 40  1  0  0  0  0
 30 41  1  0  0  0  0
 25 42  4  0  0  0  0
 42 43  1  0  0  0  0
 43 44  1  0  0  0  0
 44 45  2  0  0  0  0
 43 46  1  0  0  0  0
 46 47  1  0  0  0  0
 42 48  1  0  0  0  0
 43 49  1  0  0  0  0
 46 50  1  0  0  0  0
 46 51  1  0  0  0  0
 47 52  1  0  0  0  0
 44 53  1  0  0  0  0
 54 55  1  0  0  0  0
 55 56  1  0  0  0  0
 56 57  1  0  0  0  0
 57 58  2  0  0  0  0
 56 59  1  0  0  0  0
 59 60  1  0  0  0  0
 60 61  1  0  0  0  0
 60 62  1  0  0  0  0
 55 63  1  0  0  0  0
 56 64  1  0  0  0  0
 59 65  1  0  0  0  0
 59 66  1  0  0  0  0
 60 67  1  0  0  0  0
 61 68  1  0  0  0  0
 61 69  1  0  0  0  0
 61 70  1  0  0  0  0
 62 71  1  0  0  0  0
 62 72  1  0  0  0  0
 62 73  1  0  0  0  0
 57 74  4  0  0  0  0
 74 75  1  0  0  0  0
 75 76  1  0  0  0  0
 76 77  2  0  0  0  0
 75 78  1  0  0  0  0
 74 79  1  0  0  0  0
 75 80  1  0  0  0  0
 78 81  1  0  0  0  0
 78 82  1  0  0  0  0
 78 83  1  0  0  0  0
 76 84  4  0  0  0  0
 84 85  1  0  0  0  0
 85 86  1  0  0  0  0
 86 87  2  0  0  0  0
 85 88  1  0  0  0  0
 88 89  1  0  0  0  0
 89 90  2  0  0  0  0
 89 91  4  0  0  0  0
 84 92  1  0  0  0  0
 85 93  1  0  0  0  0
 88 94  1  0  0  0  0
 88 95  1  0  0  0  0
 86 96  1  0  0  0  0
 97 98  1  0  0  0  0
 98 99  1  0  0  0  0
 99100  1  0  0  0  0
100101  2  0  0  0  0
 99102  1  0  0  0  0
102103  1  0  0  0  0
103104  1  0  0  0  0
104105  4  0  0  0  0
104106  2  0  0  0  0
 98107  1  0  0  0  0
 99108  1  0  0  0  0
102109  1  0  0  0  0
102110  1  0  0  0  0
103111  1  0  0  0  0
103112  1  0  0  0  0
100113  4  0  0  0  0
113114  1  0  0  0  0
114115  1  0  0  0  0
115116  2  0  0  0  0
114117  1  0  0  0  0
117118  1  0  0  0  0
118119  1  0  0  0  0
118120  1  0  0  0  0
113121  1  0  0  0  0
114122  1  0  0  0  0
117123  1  0  0  0  0
117124  1  0  0  0  0
118125  1  0  0  0  0
119126  1  0  0  0  0
119127  1  0  0  0  0
119128  1  0  0  0  0
120129  1  0  0  0  0
120130  1  0  0  0  0
120131  1  0  0  0  0
115132  1  0  0  0  0
133134  1  0  0  0  0
134135  1  0  0  0  0
135136  1  0  0  0  0
136137  2  0  0  0  0
135138  1  0  0  0  0
138139  1  0  0  0  0
139140  2  0  0  0  0
139141  1  0  0  0  0
140142  1  0  0  0  0
141143  4  0  0  0  0
142143  1  0  0  0  0
141144  4  0  0  0  0
143145  4  0  0  0  0
144146  2  0  0  0  0
145147  2  0  0  0  0
146147  4  0  0  0  0
134148  1  0  0  0  0
135149  1  0  0  0  0
138150  1  0  0  0  0
138151  1  0  0  0  0
140152  1  0  0  0  0
142153  1  0  0  0  0
144154  1  0  0  0  0
145155  1  0  0  0  0
146156  1  0  0  0  0
147157  1  0  0  0  0
136158  4  0  0  0  0
158159  1  0  0  0  0
159160  1  0  0  0  0
160161  2  0  0  0  0
159162  1  0  0  0  0
162163  1  0  0  0  0
163164  1  0  0  0  0
164165  1  0  0  0  0
158166  1  0  0  0  0
159167  1  0  0  0  0
162168  1  0  0  0  0
162169  1  0  0  0  0
163170  1  0  0  0  0
163171  1  0  0  0  0
165172  1  0  0  0  0
165173  1  0  0  0  0
165174  1  0  0  0  0
160175  1  0  0  0  0
176177  1  0  0  0  0
177178  1  0  0  0  0
178179  1  0  0  0  0
179180  2  0  0  0  0
178181  1  0  0  0  0
181182  1  0  0  0  0
182183  1  0  0  0  0
182184  1  0  0  0  0
177185  1  0  0  0  0
178186  1  0  0  0  0
181187  1  0  0  0  0
181188  1  0  0  0  0
182189  1  0  0  0  0
183190  1  0  0  0  0
183191  1  0  0  0  0
183192  1  0  0  0  0
184193  1  0  0  0  0
184194  1  0  0  0  0
184195  1  0  0  0  0
179196  4  0  0  0  0
196197  1  0  0  0  0
197198  1  0  0  0  0
198199  2  0  0  0  0
197200  1  0  0  0  0
200201  1  0  0  0  0
200202  1  0  0  0  0
201203  1  0  0  0  0
196204  1  0  0  0  0
197205  1  0  0  0  0
200206  1  0  0  0  0
201207  1  0  0  0  0
201208  1  0  0  0  0
202209  1  0  0  0  0
202210  1  0  0  0  0
202211  1  0  0  0  0
203212  1  0  0  0  0
203213  1  0  0  0  0
203214  1  0  0  0  0
198215  1  0  0  0  0
216217  1  0  0  0  0
217218  1  0  0  0  0
218219  1  0  0  0  0
219220  2  0  0  0  0
218221  1  0  0  0  0
221222  1  0  0  0  0
221223  1  0  0  0  0
217224  1  0  0  0  0
218225  1  0  0  0  0
221226  1  0  0  0  0
222227  1  0  0  0  0
222228  1  0  0  0  0
222229  1  0  0  0  0
223230  1  0  0  0  0
223231  1  0  0  0  0
223232  1  0  0  0  0
219233  1  0  0  0  0
234235  1  0  0  0  0
235236  1  0  0  0  0
236237  1  0  0  0  0
237238  2  0  0  0  0
236239  1  0  0  0  0
239240  1  0  0  0  0
240241  1  0  0  0  0
241242  1  0  0  0  0
242243  4  0  0  0  0
243244  4  0  0  0  0
243245  4  0  0  0  0
235246  1  0  0  0  0
236247  1  0  0  0  0
239248  1  0  0  0  0
239249  1  0  0  0  0
240250  1  0  0  0  0
240251  1  0  0  0  0
241252  1  0  0  0  0
241253  1  0  0  0  0
242254  1  0  0  0  0
244255  1  0  0  0  0
244256  1  0  0  0  0
245257  1  0  0  0  0
245258  1  0  0  0  0
237259  1  0  0  0  0
260261  1  0  0  0  0
261262  1  0  0  0  0
262263  1  0  0  0  0
263264  2  0  0  0  0
262265  1  0  0  0  0
265266  1  0  0  0  0
266267  4  0  0  0  0
266268  4  0  0  0  0
267269  4  0  0  0  0
268270  4  0  0  0  0
269271  4  0  0  0  0
270271  4  0  0  0  0
271272  1  0  0  0  0
261273  1  0  0  0  0
262274  1  0  0  0  0
265275  1  0  0  0  0
265276  1  0  0  0  0
267277  1  0  0  0  0
268278  1  0  0  0  0
269279  1  0  0  0  0
270280  1  0  0  0  0
272281  1  0  0  0  0
263282  1  0  0  0  0
283284  1  0  0  0  0
284285  1  0  0  0  0
285286  1  0  0  0  0
286287  2  0  0  0  0
285288  1  0  0  0  0
288289  1  0  0  0  0
289290  1  0  0  0  0
289291  1  0  0  0  0
284292  1  0  0  0  0
285293  1  0  0  0  0
288294  1  0  0  0  0
288295  1  0  0  0  0
289296  1  0  0  0  0
290297  1  0  0  0  0
290298  1  0  0  0  0
290299  1  0  0  0  0
291300  1  0  0  0  0
291301  1  0  0  0  0
291302  1  0  0  0  0
286303  1  0  0  0  0
304305  1  0  0  0  0
305306  1  0  0  0  0
306307  1  0  0  0  0
307308  2  0  0  0  0
306309  1  0  0  0  0
309310  1  0  0  0  0
310311  1  0  0  0  0
310312  1  0  0  0  0
305313  1  0  0  0  0
306314  1  0  0  0  0
309315  1  0  0  0  0
309316  1  0  0  0  0
310317  1  0  0  0  0
311318  1  0  0  0  0
311319  1  0  0  0  0
311320  1  0  0  0  0
312321  1  0  0  0  0
312322  1  0  0  0  0
312323  1  0  0  0  0
307324  1  0  0  0  0
325326  1  0  0  0  0
326327  1  0  0  0  0
327328  1  0  0  0  0
328329  2  0  0  0  0
327330  1  0  0  0  0
330331  1  0  0  0  0
330332  1  0  0  0  0
331333  1  0  0  0  0
326334  1  0  0  0  0
327335  1  0  0  0  0
330336  1  0  0  0  0
331337  1  0  0  0  0
331338  1  0  0  0  0
332339  1  0  0  0  0
332340  1  0  0  0  0
332341  1  0  0  0  0
333342  1  0  0  0  0
333343  1  0  0  0  0
333344  1  0  0  0  0
328345  1  0  0  0  0
346347  1  0  0  0  0
347348  1  0  0  0  0
348349  1  0  0  0  0
349350  2  0  0  0  0
348351  1  0  0  0  0
347352  1  0  0  0  0
348353  1  0  0  0  0
351354  1  0  0  0  0
351355  1  0  0  0  0
351356  1  0  0  0  0
349357  1  0  0  0  0
358359  1  0  0  0  0
359360  1  0  0  0  0
360361  1  0  0  0  0
361362  2  0  0  0  0
360363  1  0  0  0  0
363364  1  0  0  0  0
364365  4  0  0  0  0
364366  4  0  0  0  0
365367  4  0  0  0  0
366368  4  0  0  0  0
367369  4  0  0  0  0
368369  4  0  0  0  0
359370  1  0  0  0  0
360371  1  0  0  0  0
363372  1  0  0  0  0
363373  1  0  0  0  0
365374  1  0  0  0  0
366375  1  0  0  0  0
367376  1  0  0  0  0
368377  1  0  0  0  0
369378  1  0  0  0  0
361379  1  0  0  0  0
380381  1  0  0  0  0
381382  1  0  0  0  0
382383  1  0  0  0  0
383384  2  0  0  0  0
382385  1  0  0  0  0
385386  1  0  0  0  0
385387  1  0  0  0  0
386388  1  0  0  0  0
381389  1  0  0  0  0
382390  1  0  0  0  0
385391  1  0  0  0  0
386392  1  0  0  0  0
386393  1  0  0  0  0
387394  1  0  0  0  0
387395  1  0  0  0  0
387396  1  0  0  0  0
388397  1  0  0  0  0
388398  1  0  0  0  0
388399  1  0  0  0  0
383400  1  0  0  0  0
401402  1  0  0  0  0
402403  1  0  0  0  0
403404  1  0  0  0  0
404405  2  0  0  0  0
403406  1  0  0  0  0
406407  1  0  0  0  0
407408  1  0  0  0  0
408409  2  0  0  0  0
408410  2  0  0  0  0
404411  4  0  0  0  0
402412  1  0  0  0  0
403413  1  0  0  0  0
406414  1  0  0  0  0
406415  1  0  0  0  0
407416  1  0  0  0  0
407417  1  0  0  0  0
418419  4  0  0  0  0
419420  4  0  0  0  0
420421  4  0  0  0  0
421422  1  0  0  0  0
421423  4  0  0  0  0
418424  4  0  0  0  0
423424  4  0  0  0  0
418425  1  0  0  0  0
425426  2  0  0  0  0
426427  1  0  0  0  0
427428  1  0  0  0  0
426429  1  0  0  0  0
429430  4  0  0  0  0
430431  4  0  0  0  0
431432  4  0  0  0  0
432433  4  0  0  0  0
429434  4  0  0  0  0
433434  4  0  0  0  0
425435  1  0  0  0  0
435436  4  0  0  0  0
436437  4  0  0  0  0
437438  4  0  0  0  0
438439  1  0  0  0  0
438440  4  0  0  0  0
435441  4  0  0  0  0
440441  4  0  0  0  0
439442  1  0  0  0  0
442443  1  0  0  0  0
443444  1  0  0  0  0
444445  1  0  0  0  0
444446  1  0  0  0  0
422447  1  0  0  0  0
419448  1  0  0  0  0
420449  1  0  0  0  0
444450  1  0  0  0  0
423451  1  0  0  0  0
424452  1  0  0  0  0
427453  1  0  0  0  0
427454  1  0  0  0  0
428455  1  0  0  0  0
428456  1  0  0  0  0
428457  1  0  0  0  0
430458  1  0  0  0  0
431459  1  0  0  0  0
432460  1  0  0  0  0
433461  1  0  0  0  0
434462  1  0  0  0  0
436463  1  0  0  0  0
437464  1  0  0  0  0
440465  1  0  0  0  0
441466  1  0  0  0  0
442467  1  0  0  0  0
442468  1  0  0  0  0
443469  1  0  0  0  0
443470  1  0  0  0  0
445471  1  0  0  0  0
445472  1  0  0  0  0
445473  1  0  0  0  0
446474  1  0  0  0  0
446475  1  0  0  0  0
446476  1  0  0  0  0
477478  1  0  0  0  0
477479  1  0  0  0  0
480481  1  0  0  0  0
480482  1  0  0  0  0
M  CHG  1   1  -2
M  END
