 xtb: 6.6.0 (2ccbbd7)
          01112420353D

 34 36  0     0  0            999 V2000
   50.0850   48.3384   31.2579 C   0  0  0  0  0  0  0  0  0  0  0  0
   50.6795   48.9112   30.0953 O   0  0  0  0  0  0  0  0  0  0  0  0
   50.5622   46.8936   31.5134 C   0  0  0  0  0  0  0  0  0  0  0  0
   50.5515   46.1864   30.1767 N   0  0  0  0  0  0  0  0  0  0  0  0
   52.0029   46.7466   32.1096 C   0  0  0  0  0  0  0  0  0  0  0  0
   51.9374   46.0585   33.3407 O   0  0  0  0  0  0  0  0  0  0  0  0
   52.8786   45.9819   31.0058 C   0  0  0  0  0  0  0  0  0  0  0  0
   53.3282   44.6944   31.3534 O   0  0  0  0  0  0  0  0  0  0  0  0
   51.9825   45.9072   29.7164 C   0  0  0  0  0  0  0  0  0  0  0  0
   55.7367   47.6134   26.5467 N   0  0  0  0  0  0  0  0  0  0  0  0
   55.8481   46.9570   27.7309 C   0  0  0  0  0  0  0  0  0  0  0  0
   54.8513   46.6252   28.4910 N   0  0  0  0  0  0  0  0  0  0  0  0
   53.6242   46.9808   27.9763 C   0  0  0  0  0  0  0  0  0  0  0  0
   53.4531   47.6730   26.7799 C   0  0  0  0  0  0  0  0  0  0  0  0
   54.5552   48.1118   25.9743 C   0  0  0  0  0  0  0  0  0  0  0  0
   54.5809   48.8341   24.9841 O   0  0  0  0  0  0  0  0  0  0  0  0
   52.1153   47.8524   26.5761 N   0  0  0  0  0  0  0  0  0  0  0  0
   51.4286   47.3030   27.6093 C   0  0  0  0  0  0  0  0  0  0  0  0
   52.3117   46.7433   28.5227 C   0  0  0  0  0  0  0  0  0  0  0  0
   50.0826   46.7871   29.4946 H   0  0  0  0  0  0  0  0  0  0  0  0
   56.5638   47.9275   26.0423 H   0  0  0  0  0  0  0  0  0  0  0  0
   50.0215   45.3039   30.2269 H   0  0  0  0  0  0  0  0  0  0  0  0
   51.7273   48.4609   25.8611 H   0  0  0  0  0  0  0  0  0  0  0  0
   52.5437   44.1631   31.6739 H   0  0  0  0  0  0  0  0  0  0  0  0
   51.8089   46.6985   34.0579 H   0  0  0  0  0  0  0  0  0  0  0  0
   51.6461   48.8530   30.1447 H   0  0  0  0  0  0  0  0  0  0  0  0
   56.8529   46.6515   28.0131 H   0  0  0  0  0  0  0  0  0  0  0  0
   50.3506   47.3918   27.6006 H   0  0  0  0  0  0  0  0  0  0  0  0
   51.9886   44.8530   29.4304 H   0  0  0  0  0  0  0  0  0  0  0  0
   53.7657   46.5761   30.7903 H   0  0  0  0  0  0  0  0  0  0  0  0
   52.4329   47.7534   32.2405 H   0  0  0  0  0  0  0  0  0  0  0  0
   49.8665   46.3777   32.1874 H   0  0  0  0  0  0  0  0  0  0  0  0
   49.0062   48.3463   31.0709 H   0  0  0  0  0  0  0  0  0  0  0  0
   50.2667   48.9388   32.1618 H   0  0  0  0  0  0  0  0  0  0  0  0
  1  2  1  0  0  0  0
  1  3  1  0  0  0  0
  3  4  1  0  0  0  0
  3  5  1  0  0  0  0
  5  6  1  0  0  0  0
  5  7  1  0  0  0  0
  7  8  1  0  0  0  0
  4  9  1  0  0  0  0
  7  9  1  0  0  0  0
 10 11  4  0  0  0  0
 11 12  2  0  0  0  0
 12 13  1  0  0  0  0
 13 14  4  0  0  0  0
 10 15  1  0  0  0  0
 14 15  1  0  0  0  0
 15 16  2  0  0  0  0
 14 17  1  0  0  0  0
 17 18  4  0  0  0  0
  9 19  1  0  0  0  0
 13 19  4  0  0  0  0
 18 19  4  0  0  0  0
  4 20  1  0  0  0  0
 10 21  1  0  0  0  0
  4 22  1  0  0  0  0
 17 23  1  0  0  0  0
  8 24  1  0  0  0  0
  6 25  1  0  0  0  0
  2 26  1  0  0  0  0
 11 27  1  0  0  0  0
 18 28  1  0  0  0  0
  9 29  1  0  0  0  0
  7 30  1  0  0  0  0
  5 31  1  0  0  0  0
  3 32  1  0  0  0  0
  1 33  1  0  0  0  0
  1 34  1  0  0  0  0
M  CHG  1   1   1
M  END
