 xtb: 6.5.1 (b24c23e)
          11042214563D

 42 45  0     0  0            999 V2000
    8.7712   -5.6435   -3.6644 C   0  0  0  0  0  0  0  0  0  0  0  0
    8.4637   -5.3489   -2.6664 H   0  0  0  0  0  0  0  0  0  0  0  0
    8.0142   -5.2261   -4.7387 C   0  0  0  0  0  0  0  0  0  0  0  0
    7.1362   -4.6059   -4.6022 H   0  0  0  0  0  0  0  0  0  0  0  0
    8.4447   -5.5429   -6.0235 C   0  0  0  0  0  0  0  0  0  0  0  0
    7.4268   -4.9431   -7.2761 Cl  0  0  0  0  0  0  0  0  0  0  0  0
    9.6143   -6.2870   -6.2665 C   0  0  0  0  0  0  0  0  0  0  0  0
    9.9133   -6.5300   -7.2806 H   0  0  0  0  0  0  0  0  0  0  0  0
   10.3481   -6.7255   -5.1552 C   0  0  0  0  0  0  0  0  0  0  0  0
   11.2366   -7.3407   -5.2638 H   0  0  0  0  0  0  0  0  0  0  0  0
    9.9109   -6.4258   -3.8509 C   0  0  0  0  0  0  0  0  0  0  0  0
   10.6560   -6.9011   -2.6587 C   0  0  0  0  0  0  0  0  0  0  0  0
   11.8994   -7.1447   -2.8301 N   0  0  0  0  0  0  0  0  0  0  0  0
    9.8758   -7.0298   -1.3757 C   0  0  0  0  0  0  0  0  0  0  0  0
    8.5609   -7.5146   -1.4590 C   0  0  0  0  0  0  0  0  0  0  0  0
    8.2209   -7.8929   -2.4166 H   0  0  0  0  0  0  0  0  0  0  0  0
    7.6866   -7.4584   -0.3833 C   0  0  0  0  0  0  0  0  0  0  0  0
    6.7015   -7.9007   -0.4796 H   0  0  0  0  0  0  0  0  0  0  0  0
    8.1171   -6.8949    0.8324 C   0  0  0  0  0  0  0  0  0  0  0  0
    7.4655   -6.9315    1.6980 H   0  0  0  0  0  0  0  0  0  0  0  0
    9.4117   -6.3982    0.9233 C   0  0  0  0  0  0  0  0  0  0  0  0
    9.7750   -5.9766    1.8554 H   0  0  0  0  0  0  0  0  0  0  0  0
   10.3244   -6.4411   -0.1576 C   0  0  0  0  0  0  0  0  0  0  0  0
   11.6874   -5.8876   -0.0497 C   0  0  0  0  0  0  0  0  0  0  0  0
   12.2792   -4.7577    0.5836 C   0  0  0  0  0  0  0  0  0  0  0  0
   11.6635   -3.6678    1.4143 C   0  0  0  0  0  0  0  0  0  0  0  0
   11.3888   -4.0582    2.3982 H   0  0  0  0  0  0  0  0  0  0  0  0
   10.7815   -3.2333    0.9472 H   0  0  0  0  0  0  0  0  0  0  0  0
   12.4222   -2.8983    1.5828 H   0  0  0  0  0  0  0  0  0  0  0  0
   13.5720   -4.7116    0.3711 N   0  0  0  0  0  0  0  0  0  0  0  0
   13.8695   -5.7533   -0.4909 O   0  0  0  0  0  0  0  0  0  0  0  0
   12.7401   -6.4079   -0.7410 C   0  0  0  0  0  0  0  0  0  0  0  0
   12.6826   -7.5599   -1.6855 C   0  0  0  0  0  0  0  0  0  0  0  0
   12.1650   -8.4032   -1.1921 H   0  0  0  0  0  0  0  0  0  0  0  0
   14.0552   -8.0444   -2.1031 C   0  0  0  0  0  0  0  0  0  0  0  0
   14.5767   -8.4885   -1.2509 H   0  0  0  0  0  0  0  0  0  0  0  0
   14.6572   -7.1989   -2.4506 H   0  0  0  0  0  0  0  0  0  0  0  0
   13.9097   -9.0904   -3.2158 C   0  0  0  0  0  0  0  0  0  0  0  0
   12.9121   -9.7786   -3.3899 O   0  0  0  0  0  0  0  0  0  0  0  0
   15.0408   -9.2254   -3.9570 N   0  0  0  0  0  0  0  0  0  0  0  0
   14.9668   -9.7516   -4.8153 H   0  0  0  0  0  0  0  0  0  0  0  0
   15.7282   -8.4789   -3.9494 H   0  0  0  0  0  0  0  0  0  0  0  0
  1  2  1  0  0  0  0
  1  3  4  0  0  0  0
  3  4  1  0  0  0  0
  3  5  4  0  0  0  0
  5  6  1  0  0  0  0
  5  7  4  0  0  0  0
  7  8  1  0  0  0  0
  7  9  4  0  0  0  0
  9 10  1  0  0  0  0
  1 11  4  0  0  0  0
  9 11  4  0  0  0  0
 11 12  1  0  0  0  0
 12 13  2  0  0  0  0
 12 14  1  0  0  0  0
 14 15  4  0  0  0  0
 15 16  1  0  0  0  0
 15 17  4  0  0  0  0
 17 18  1  0  0  0  0
 17 19  4  0  0  0  0
 19 20  1  0  0  0  0
 19 21  4  0  0  0  0
 21 22  1  0  0  0  0
 14 23  4  0  0  0  0
 21 23  4  0  0  0  0
 23 24  1  0  0  0  0
 24 25  4  0  0  0  0
 25 26  1  0  0  0  0
 26 27  1  0  0  0  0
 26 28  1  0  0  0  0
 26 29  1  0  0  0  0
 25 30  2  0  0  0  0
 30 31  1  0  0  0  0
 24 32  4  0  0  0  0
 31 32  1  0  0  0  0
 13 33  1  0  0  0  0
 32 33  1  0  0  0  0
 33 34  1  0  0  0  0
 33 35  1  0  0  0  0
 35 36  1  0  0  0  0
 35 37  1  0  0  0  0
 35 38  1  0  0  0  0
 38 39  2  0  0  0  0
 38 40  4  0  0  0  0
 40 41  1  0  0  0  0
 40 42  1  0  0  0  0
M  END
