@<TRIPOS>MOLECULE
MOL
   42    45     1     0     0
SMALL
resp


@<TRIPOS>ATOM
      1 C1           8.7640    -5.6530    -3.6200 ca         1 MOL      -0.149582
      2 H1           8.4550    -5.3370    -2.6360 ha         1 MOL       0.123375
      3 C2           8.0440    -5.2180    -4.7120 ca         1 MOL      -0.023756
      4 H2           7.1590    -4.6040    -4.5800 ha         1 MOL       0.099457
      5 C3           8.4650    -5.5350    -5.9820 ca         1 MOL      -0.022849
      6 Cl1          7.5230    -4.9520    -7.3080 cl         1 MOL      -0.103153
      7 C4           9.6050    -6.3010    -6.1880 ca         1 MOL      -0.023756
      8 H3           9.9150    -6.5490    -7.1980 ha         1 MOL       0.099457
      9 C5          10.3220    -6.7540    -5.0890 ca         1 MOL      -0.149582
     10 H4          11.2090    -7.3660    -5.2020 ha         1 MOL       0.123375
     11 C6           9.8900    -6.4170    -3.8220 ca         1 MOL      -0.009265
     12 C7          10.6430    -6.8570    -2.6350 ce         1 MOL       0.312407
     13 N1          11.8910    -7.1650    -2.8100 n2         1 MOL      -0.394540
     14 C8           9.8440    -6.9140    -1.3910 ca         1 MOL       0.069612
     15 C9           8.5680    -7.4230    -1.5250 ca         1 MOL      -0.223038
     16 H5           8.2390    -7.8460    -2.4640 ha         1 MOL       0.154055
     17 C10          7.7350    -7.4700    -0.4160 ca         1 MOL      -0.084743
     18 H6           6.7450    -7.9100    -0.4980 ha         1 MOL       0.111867
     19 C11          8.1700    -6.9610     0.7930 ca         1 MOL      -0.125070
     20 H7           7.5190    -7.0020     1.6620 ha         1 MOL       0.120438
     21 C12          9.4290    -6.4100     0.9090 ca         1 MOL      -0.141747
     22 H8           9.7680    -6.0210     1.8640 ha         1 MOL       0.123691
     23 C13         10.2800    -6.3660    -0.1930 ca         1 MOL       0.109794
     24 C14         11.6480    -5.8700    -0.0590 cc         1 MOL      -0.464993
     25 C15         12.2810    -4.7620     0.5620 cc         1 MOL       0.603593
     26 C16         11.7170    -3.7000     1.4180 c3         1 MOL      -0.466939
     27 H9          11.4170    -4.0890     2.3980 hc         1 MOL       0.132495
     28 H10         10.8280    -3.2530     0.9610 hc         1 MOL       0.132495
     29 H11         12.4600    -2.9160     1.5780 hc         1 MOL       0.132495
     30 N2          13.5790    -4.7020     0.2170 nd         1 MOL      -0.472901
     31 O1          13.8290    -5.8090    -0.5840 os         1 MOL      -0.040245
     32 C17         12.6650    -6.4690    -0.7650 cd         1 MOL       0.358755
     33 C18         12.6420    -7.6320    -1.6510 c3         1 MOL       0.016807
     34 H12         12.1270    -8.4770    -1.1720 h1         1 MOL       0.093057
     35 C19         14.0390    -8.0520    -2.0740 c3         1 MOL      -0.371411
     36 H13         14.5760    -8.5080    -1.2350 hc         1 MOL       0.116481
     37 H14         14.6140    -7.1820    -2.4000 hc         1 MOL       0.116481
     38 C20         13.8900    -9.0470    -3.1850 c          1 MOL       0.784140
     39 O2          12.9140    -9.7630    -3.3360 o          1 MOL      -0.524907
     40 N3          14.9830    -9.1000    -3.9920 n          1 MOL      -0.957590
     41 H15         14.9620    -9.7200    -4.7880 hn         1 MOL       0.407871
     42 H16         15.7230    -8.4200    -3.9350 hn         1 MOL       0.407871
@<TRIPOS>BOND
     1     1     2 1   
     2     1     3 ar  
     3     1    11 ar  
     4     3     4 1   
     5     3     5 ar  
     6     5     6 1   
     7     5     7 ar  
     8     7     8 1   
     9     7     9 ar  
    10     9    10 1   
    11     9    11 ar  
    12    11    12 1   
    13    12    13 2   
    14    12    14 1   
    15    13    33 1   
    16    14    15 ar  
    17    14    23 ar  
    18    15    16 1   
    19    15    17 ar  
    20    17    18 1   
    21    17    19 ar  
    22    19    20 1   
    23    19    21 ar  
    24    21    22 1   
    25    21    23 ar  
    26    23    24 1   
    27    24    25 1   
    28    24    32 2   
    29    25    26 1   
    30    25    30 2   
    31    26    27 1   
    32    26    28 1   
    33    26    29 1   
    34    30    31 1   
    35    31    32 1   
    36    32    33 1   
    37    33    34 1   
    38    33    35 1   
    39    35    36 1   
    40    35    37 1   
    41    35    38 1   
    42    38    39 2   
    43    38    40 1   
    44    40    41 1   
    45    40    42 1   
@<TRIPOS>SUBSTRUCTURE
     1 MOL         1 TEMP              0 ****  ****    0 ROOT
