 xtb: 6.6.0 (2ccbbd7)
          12272313383D

 58 60  0     0  0            999 V2000
   10.3626  -30.0415  -30.4109 C   0  0  0  0  0  0  0  0  0  0  0  0
   11.1553  -29.5122  -29.3268 C   0  0  0  0  0  0  0  0  0  0  0  0
   11.5862  -28.1591  -29.2816 C   0  0  0  0  0  0  0  0  0  0  0  0
   12.3260  -27.6581  -28.2296 C   0  0  0  0  0  0  0  0  0  0  0  0
   12.7185  -28.4893  -27.1395 C   0  0  0  0  0  0  0  0  0  0  0  0
   12.3536  -29.8657  -27.2098 C   0  0  0  0  0  0  0  0  0  0  0  0
   11.5751  -30.3391  -28.2471 C   0  0  0  0  0  0  0  0  0  0  0  0
   10.4415  -31.4538  -30.6877 C   0  0  0  0  0  0  0  0  0  0  0  0
   11.6978  -32.1061  -30.6180 C   0  0  0  0  0  0  0  0  0  0  0  0
   11.8594  -33.4128  -31.0143 C   0  0  0  0  0  0  0  0  0  0  0  0
   10.7452  -34.2022  -31.4270 C   0  0  0  0  0  0  0  0  0  0  0  0
    9.4627  -33.5755  -31.4077 C   0  0  0  0  0  0  0  0  0  0  0  0
    9.3337  -32.2369  -31.1102 C   0  0  0  0  0  0  0  0  0  0  0  0
    9.5528  -29.2134  -31.2781 C   0  0  0  0  0  0  0  0  0  0  0  0
    9.3520  -29.5922  -32.6409 C   0  0  0  0  0  0  0  0  0  0  0  0
    8.5853  -28.8459  -33.5118 C   0  0  0  0  0  0  0  0  0  0  0  0
    7.9114  -27.6620  -33.0566 C   0  0  0  0  0  0  0  0  0  0  0  0
    8.1510  -27.2353  -31.7124 C   0  0  0  0  0  0  0  0  0  0  0  0
    8.9328  -27.9930  -30.8657 C   0  0  0  0  0  0  0  0  0  0  0  0
   13.8236  -28.8582  -24.9825 C   0  0  0  0  0  0  0  0  0  0  0  0
   13.5099  -26.5311  -25.9136 C   0  0  0  0  0  0  0  0  0  0  0  0
    9.8582  -36.2447  -32.4529 C   0  0  0  0  0  0  0  0  0  0  0  0
   12.1570  -36.2159  -31.5522 C   0  0  0  0  0  0  0  0  0  0  0  0
    6.5942  -25.6514  -33.4989 C   0  0  0  0  0  0  0  0  0  0  0  0
    6.8358  -27.4300  -35.2495 C   0  0  0  0  0  0  0  0  0  0  0  0
   13.3805  -27.9756  -26.0616 N   0  0  0  0  0  0  0  0  0  0  0  0
   10.9343  -35.4828  -31.8364 N   0  0  0  0  0  0  0  0  0  0  0  0
    7.0903  -26.9607  -33.8833 N   0  0  0  0  0  0  0  0  0  0  0  0
    7.6935  -27.2549  -35.9066 H   0  0  0  0  0  0  0  0  0  0  0  0
    6.5933  -28.4978  -35.2658 H   0  0  0  0  0  0  0  0  0  0  0  0
    5.9695  -26.8970  -35.6423 H   0  0  0  0  0  0  0  0  0  0  0  0
    5.7534  -25.7201  -32.7962 H   0  0  0  0  0  0  0  0  0  0  0  0
    7.3847  -25.0464  -33.0452 H   0  0  0  0  0  0  0  0  0  0  0  0
    6.2481  -25.1290  -34.3906 H   0  0  0  0  0  0  0  0  0  0  0  0
   12.7850  -36.3202  -32.4423 H   0  0  0  0  0  0  0  0  0  0  0  0
   12.7167  -35.7393  -30.7498 H   0  0  0  0  0  0  0  0  0  0  0  0
   11.8688  -37.2081  -31.1927 H   0  0  0  0  0  0  0  0  0  0  0  0
    9.3111  -36.8536  -31.7238 H   0  0  0  0  0  0  0  0  0  0  0  0
    9.1563  -35.5827  -32.9613 H   0  0  0  0  0  0  0  0  0  0  0  0
   10.2806  -36.9027  -33.2153 H   0  0  0  0  0  0  0  0  0  0  0  0
   14.0433  -26.0724  -26.7496 H   0  0  0  0  0  0  0  0  0  0  0  0
   12.5218  -26.0570  -25.8209 H   0  0  0  0  0  0  0  0  0  0  0  0
   14.0634  -26.3186  -24.9993 H   0  0  0  0  0  0  0  0  0  0  0  0
   13.0007  -29.4397  -24.5529 H   0  0  0  0  0  0  0  0  0  0  0  0
   14.5893  -29.5503  -25.3559 H   0  0  0  0  0  0  0  0  0  0  0  0
   14.2742  -28.2580  -24.1936 H   0  0  0  0  0  0  0  0  0  0  0  0
    9.0163  -27.6800  -29.8283 H   0  0  0  0  0  0  0  0  0  0  0  0
    7.6399  -26.3702  -31.3088 H   0  0  0  0  0  0  0  0  0  0  0  0
    8.4804  -29.1838  -34.5344 H   0  0  0  0  0  0  0  0  0  0  0  0
    9.8364  -30.4876  -33.0108 H   0  0  0  0  0  0  0  0  0  0  0  0
    8.3364  -31.8040  -31.1329 H   0  0  0  0  0  0  0  0  0  0  0  0
    8.5575  -34.1482  -31.5834 H   0  0  0  0  0  0  0  0  0  0  0  0
   12.8646  -33.7946  -31.1247 H   0  0  0  0  0  0  0  0  0  0  0  0
   12.5844  -31.5220  -30.3933 H   0  0  0  0  0  0  0  0  0  0  0  0
   11.2767  -31.3820  -28.2285 H   0  0  0  0  0  0  0  0  0  0  0  0
   12.6513  -30.5585  -26.4334 H   0  0  0  0  0  0  0  0  0  0  0  0
   12.5542  -26.6001  -28.2240 H   0  0  0  0  0  0  0  0  0  0  0  0
   11.3141  -27.4844  -30.0866 H   0  0  0  0  0  0  0  0  0  0  0  0
  1  2  4  0  0  0  0
  2  3  4  0  0  0  0
  3  4  2  0  0  0  0
  4  5  4  0  0  0  0
  5  6  4  0  0  0  0
  2  7  4  0  0  0  0
  6  7  2  0  0  0  0
  1  8  1  0  0  0  0
  8  9  4  0  0  0  0
  9 10  2  0  0  0  0
 10 11  4  0  0  0  0
 11 12  4  0  0  0  0
  8 13  4  0  0  0  0
 12 13  2  0  0  0  0
  1 14  4  0  0  0  0
 14 15  4  0  0  0  0
 15 16  2  0  0  0  0
 16 17  4  0  0  0  0
 17 18  4  0  0  0  0
 14 19  4  0  0  0  0
 18 19  2  0  0  0  0
  5 26  4  0  0  0  0
 20 26  1  0  0  0  0
 21 26  1  0  0  0  0
 11 27  4  0  0  0  0
 22 27  1  0  0  0  0
 23 27  1  0  0  0  0
 17 28  4  0  0  0  0
 24 28  1  0  0  0  0
 25 28  1  0  0  0  0
 25 29  1  0  0  0  0
 25 30  1  0  0  0  0
 25 31  1  0  0  0  0
 24 32  1  0  0  0  0
 24 33  1  0  0  0  0
 24 34  1  0  0  0  0
 23 35  1  0  0  0  0
 23 36  1  0  0  0  0
 23 37  1  0  0  0  0
 22 38  1  0  0  0  0
 22 39  1  0  0  0  0
 22 40  1  0  0  0  0
 21 41  1  0  0  0  0
 21 42  1  0  0  0  0
 21 43  1  0  0  0  0
 20 44  1  0  0  0  0
 20 45  1  0  0  0  0
 20 46  1  0  0  0  0
 19 47  1  0  0  0  0
 18 48  1  0  0  0  0
 16 49  1  0  0  0  0
 15 50  1  0  0  0  0
 13 51  1  0  0  0  0
 12 52  1  0  0  0  0
 10 53  1  0  0  0  0
  9 54  1  0  0  0  0
  7 55  1  0  0  0  0
  6 56  1  0  0  0  0
  4 57  1  0  0  0  0
  3 58  1  0  0  0  0
M  CHG  1   1   1
M  END
