 xtb: 6.6.0 (2ccbbd7)
          01092419343D

 59 61  0     0  0            999 V2000
   48.2278  -27.9380  -96.0904 C   0  0  0  0  0  0  0  0  0  0  0  0
   48.9006  -27.1216  -95.1618 C   0  0  0  0  0  0  0  0  0  0  0  0
   48.4864  -25.8161  -94.8943 C   0  0  0  0  0  0  0  0  0  0  0  0
   47.4006  -25.2813  -95.6088 C   0  0  0  0  0  0  0  0  0  0  0  0
   47.0131  -24.0085  -95.3711 O   0  0  0  0  0  0  0  0  0  0  0  0
   46.7415  -26.0696  -96.5518 C   0  0  0  0  0  0  0  0  0  0  0  0
   47.1396  -27.3855  -96.7570 C   0  0  0  0  0  0  0  0  0  0  0  0
   48.6022  -29.3557  -96.3410 C   0  0  0  0  0  0  0  0  0  0  0  0
   48.9870  -29.8042  -97.5453 C   0  0  0  0  0  0  0  0  0  0  0  0
   49.2445  -28.9323  -98.7644 C   0  0  0  0  0  0  0  0  0  0  0  0
   48.2762  -29.1845  -99.9398 C   0  0  0  0  0  0  0  0  0  0  0  0
   49.2785  -31.2485  -97.7706 C   0  0  0  0  0  0  0  0  0  0  0  0
   50.5790  -31.7009  -98.0424 C   0  0  0  0  0  0  0  0  0  0  0  0
   50.8128  -33.0250  -98.3834 C   0  0  0  0  0  0  0  0  0  0  0  0
   49.7464  -33.9134  -98.5011 C   0  0  0  0  0  0  0  0  0  0  0  0
   48.4581  -33.4902  -98.2094 C   0  0  0  0  0  0  0  0  0  0  0  0
   48.2295  -32.1764  -97.8082 C   0  0  0  0  0  0  0  0  0  0  0  0
   48.6362  -30.2338  -95.1315 C   0  0  0  0  0  0  0  0  0  0  0  0
   49.8070  -30.9173  -94.7540 C   0  0  0  0  0  0  0  0  0  0  0  0
   49.9152  -31.6185  -93.5598 C   0  0  0  0  0  0  0  0  0  0  0  0
   48.8225  -31.6604  -92.6955 C   0  0  0  0  0  0  0  0  0  0  0  0
   48.9234  -32.4209  -91.5505 O   0  0  0  0  0  0  0  0  0  0  0  0
   47.6553  -30.9974  -93.0529 C   0  0  0  0  0  0  0  0  0  0  0  0
   47.5604  -30.2970  -94.2511 C   0  0  0  0  0  0  0  0  0  0  0  0
   48.3993  -31.9381  -90.3329 C   0  0  0  0  0  0  0  0  0  0  0  0
   48.4470  -33.0790  -89.3471 C   0  0  0  0  0  0  0  0  0  0  0  0
   49.8286  -33.3598  -88.8087 N   0  0  0  0  0  0  0  0  0  0  0  0
   50.9653  -32.6354  -89.4894 C   0  0  0  0  0  0  0  0  0  0  0  0
   49.8587  -33.1078  -87.3299 C   0  0  0  0  0  0  0  0  0  0  0  0
   46.1390  -23.8645  -95.7571 H   0  0  0  0  0  0  0  0  0  0  0  0
   49.7583  -27.5211  -94.6233 H   0  0  0  0  0  0  0  0  0  0  0  0
   48.9692  -25.1974  -94.1443 H   0  0  0  0  0  0  0  0  0  0  0  0
   50.0138  -34.3608  -88.9319 H   0  0  0  0  0  0  0  0  0  0  0  0
   45.8930  -25.6612  -97.0963 H   0  0  0  0  0  0  0  0  0  0  0  0
   46.5887  -28.0012  -97.4632 H   0  0  0  0  0  0  0  0  0  0  0  0
   50.2681  -29.1250  -99.1046 H   0  0  0  0  0  0  0  0  0  0  0  0
   49.1787  -27.8807  -98.4740 H   0  0  0  0  0  0  0  0  0  0  0  0
   47.2505  -28.9320  -99.6535 H   0  0  0  0  0  0  0  0  0  0  0  0
   48.5507  -28.5608 -100.7960 H   0  0  0  0  0  0  0  0  0  0  0  0
   48.2940  -30.2361 -100.2436 H   0  0  0  0  0  0  0  0  0  0  0  0
   51.4153  -31.0042  -97.9977 H   0  0  0  0  0  0  0  0  0  0  0  0
   51.8239  -33.3565  -98.6104 H   0  0  0  0  0  0  0  0  0  0  0  0
   49.9186  -34.9322  -98.8380 H   0  0  0  0  0  0  0  0  0  0  0  0
   47.6328  -34.1848  -98.3294 H   0  0  0  0  0  0  0  0  0  0  0  0
   47.2231  -31.8298  -97.5992 H   0  0  0  0  0  0  0  0  0  0  0  0
   50.6709  -30.8761  -95.4099 H   0  0  0  0  0  0  0  0  0  0  0  0
   50.8316  -32.1487  -93.3158 H   0  0  0  0  0  0  0  0  0  0  0  0
   46.8245  -30.9806  -92.3628 H   0  0  0  0  0  0  0  0  0  0  0  0
   46.6504  -29.7509  -94.4817 H   0  0  0  0  0  0  0  0  0  0  0  0
   47.3465  -31.6490  -90.4254 H   0  0  0  0  0  0  0  0  0  0  0  0
   48.9498  -31.0681  -89.9532 H   0  0  0  0  0  0  0  0  0  0  0  0
   48.0950  -33.9959  -89.8226 H   0  0  0  0  0  0  0  0  0  0  0  0
   47.8210  -32.8523  -88.4862 H   0  0  0  0  0  0  0  0  0  0  0  0
   51.8834  -33.0788  -89.1021 H   0  0  0  0  0  0  0  0  0  0  0  0
   50.8915  -32.7716  -90.5641 H   0  0  0  0  0  0  0  0  0  0  0  0
   50.9125  -31.5844  -89.1809 H   0  0  0  0  0  0  0  0  0  0  0  0
   49.5758  -32.0605  -87.1931 H   0  0  0  0  0  0  0  0  0  0  0  0
   49.1975  -33.8276  -86.8460 H   0  0  0  0  0  0  0  0  0  0  0  0
   50.8824  -33.2362  -86.9786 H   0  0  0  0  0  0  0  0  0  0  0  0
  1  2  4  0  0  0  0
  2  3  4  0  0  0  0
  3  4  4  0  0  0  0
  4  5  1  0  0  0  0
  4  6  4  0  0  0  0
  1  7  4  0  0  0  0
  6  7  4  0  0  0  0
  1  8  1  0  0  0  0
  8  9  2  0  0  0  0
  9 10  1  0  0  0  0
 10 11  1  0  0  0  0
  9 12  1  0  0  0  0
 12 13  4  0  0  0  0
 13 14  4  0  0  0  0
 14 15  4  0  0  0  0
 15 16  4  0  0  0  0
 12 17  4  0  0  0  0
 16 17  4  0  0  0  0
  8 18  1  0  0  0  0
 18 19  4  0  0  0  0
 19 20  4  0  0  0  0
 20 21  4  0  0  0  0
 21 22  1  0  0  0  0
 21 23  4  0  0  0  0
 18 24  4  0  0  0  0
 23 24  4  0  0  0  0
 22 25  1  0  0  0  0
 25 26  1  0  0  0  0
 26 27  1  0  0  0  0
 27 28  1  0  0  0  0
 27 29  1  0  0  0  0
  5 30  1  0  0  0  0
  2 31  1  0  0  0  0
  3 32  1  0  0  0  0
 27 33  1  0  0  0  0
  6 34  1  0  0  0  0
  7 35  1  0  0  0  0
 10 36  1  0  0  0  0
 10 37  1  0  0  0  0
 11 38  1  0  0  0  0
 11 39  1  0  0  0  0
 11 40  1  0  0  0  0
 13 41  1  0  0  0  0
 14 42  1  0  0  0  0
 15 43  1  0  0  0  0
 16 44  1  0  0  0  0
 17 45  1  0  0  0  0
 19 46  1  0  0  0  0
 20 47  1  0  0  0  0
 23 48  1  0  0  0  0
 24 49  1  0  0  0  0
 25 50  1  0  0  0  0
 25 51  1  0  0  0  0
 26 52  1  0  0  0  0
 26 53  1  0  0  0  0
 28 54  1  0  0  0  0
 28 55  1  0  0  0  0
 28 56  1  0  0  0  0
 29 57  1  0  0  0  0
 29 58  1  0  0  0  0
 29 59  1  0  0  0  0
M  CHG  1   1   1
M  END
