 xtb: 6.6.0 (2ccbbd7)
          01032400443D

333316  0     0  0            999 V2000
   -2.1680    7.1876   19.2401 H   0  0  0  0  0  0  0  0  0  0  0  0
   -1.6310    7.9200   19.4670 N   0  0  0  0  0  0  0  0  0  0  0  0
   -1.1370    8.1630   20.8420 C   0  0  0  0  0  0  0  0  0  0  0  0
   -2.2960    8.3160   21.8010 C   0  0  0  0  0  0  0  0  0  0  0  0
   -2.2600    7.7720   22.9170 O   0  0  0  0  0  0  0  0  0  0  0  0
   -0.2380    9.4230   20.8850 C   0  0  0  0  0  0  0  0  0  0  0  0
    1.1600    9.1590   20.2870 C   0  0  0  0  0  0  0  0  0  0  0  0
    1.5040    7.9990   20.0140 O   0  0  0  0  0  0  0  0  0  0  0  0
    1.9510   10.2210   20.0520 N   0  0  0  0  0  0  0  0  0  0  0  0
   -1.3555    8.5638   18.7348 H   0  0  0  0  0  0  0  0  0  0  0  0
   -0.5717    7.2940   21.1880 H   0  0  0  0  0  0  0  0  0  0  0  0
   -0.7051   10.2449   20.3503 H   0  0  0  0  0  0  0  0  0  0  0  0
   -0.1009    9.7025   21.9194 H   0  0  0  0  0  0  0  0  0  0  0  0
    1.6384   11.1344   20.3430 H   0  0  0  0  0  0  0  0  0  0  0  0
    2.8887   10.0130   19.7518 H   0  0  0  0  0  0  0  0  0  0  0  0
   -3.3410    9.0290   21.3660 N   0  0  0  0  0  0  0  0  0  0  0  0
   -4.5630    9.1970   22.1640 C   0  0  0  0  0  0  0  0  0  0  0  0
   -5.2940    7.8690   22.3900 C   0  0  0  0  0  0  0  0  0  0  0  0
   -5.7080    7.5490   23.5110 O   0  0  0  0  0  0  0  0  0  0  0  0
   -5.4820   10.2220   21.5030 C   0  0  0  0  0  0  0  0  0  0  0  0
   -4.9090   11.5080   21.7170 O   0  0  0  0  0  0  0  0  0  0  0  0
   -3.2626    9.5245   20.4844 H   0  0  0  0  0  0  0  0  0  0  0  0
   -4.2946    9.5730   23.1525 H   0  0  0  0  0  0  0  0  0  0  0  0
   -5.5776   10.0274   20.4361 H   0  0  0  0  0  0  0  0  0  0  0  0
   -6.4674   10.1760   21.9645 H   0  0  0  0  0  0  0  0  0  0  0  0
   -4.8735   11.6733   22.6883 H   0  0  0  0  0  0  0  0  0  0  0  0
   -5.3883    7.2669   21.5490 H   0  0  0  0  0  0  0  0  0  0  0  0
   -3.4552    4.8265   24.8092 H   0  0  0  0  0  0  0  0  0  0  0  0
   -3.4790    5.7430   24.9660 N   0  0  0  0  0  0  0  0  0  0  0  0
   -3.7820    6.3230   26.2780 C   0  0  0  0  0  0  0  0  0  0  0  0
   -5.2080    6.0290   26.7500 C   0  0  0  0  0  0  0  0  0  0  0  0
   -5.4430    5.8560   27.9440 O   0  0  0  0  0  0  0  0  0  0  0  0
   -3.5310    7.8460   26.2660 C   0  0  0  0  0  0  0  0  0  0  0  0
   -3.3333    6.3693   24.1836 H   0  0  0  0  0  0  0  0  0  0  0  0
   -3.1089    5.8792   27.0132 H   0  0  0  0  0  0  0  0  0  0  0  0
   -2.4926    8.0487   26.0045 H   0  0  0  0  0  0  0  0  0  0  0  0
   -4.1794    8.3355   25.5390 H   0  0  0  0  0  0  0  0  0  0  0  0
   -3.7265    8.2694   27.2499 H   0  0  0  0  0  0  0  0  0  0  0  0
   -5.9696    6.0266   26.0174 H   0  0  0  0  0  0  0  0  0  0  0  0
   -8.1324   14.6319   23.5550 H   0  0  0  0  0  0  0  0  0  0  0  0
   -7.7480   14.2020   24.2930 N   0  0  0  0  0  0  0  0  0  0  0  0
   -8.2560   12.9130   24.6750 C   0  0  0  0  0  0  0  0  0  0  0  0
   -8.6070   12.8420   26.1730 C   0  0  0  0  0  0  0  0  0  0  0  0
   -8.2090   13.7070   26.9550 O   0  0  0  0  0  0  0  0  0  0  0  0
   -7.3170   11.7890   24.2030 C   0  0  0  0  0  0  0  0  0  0  0  0
   -5.9780   11.7950   24.9240 C   0  0  0  0  0  0  0  0  0  0  0  0
   -5.9580   11.6000   26.1620 O   0  0  0  0  0  0  0  0  0  0  0  0
   -4.8990   11.9480   24.3320 O   0  0  0  0  0  0  0  0  0  0  0  0
   -7.0665   14.6754   24.8783 H   0  0  0  0  0  0  0  0  0  0  0  0
   -9.2083   12.7266   24.1802 H   0  0  0  0  0  0  0  0  0  0  0  0
   -7.8022   10.8254   24.3669 H   0  0  0  0  0  0  0  0  0  0  0  0
   -7.1627   11.9091   23.1320 H   0  0  0  0  0  0  0  0  0  0  0  0
   -9.2287   12.0552   26.4788 H   0  0  0  0  0  0  0  0  0  0  0  0
   -6.0663    8.7573   29.6347 H   0  0  0  0  0  0  0  0  0  0  0  0
   -5.3570    8.1880   29.7740 N   0  0  0  0  0  0  0  0  0  0  0  0
   -4.7660    8.0660   31.0990 C   0  0  0  0  0  0  0  0  0  0  0  0
   -4.0460    9.2980   31.6040 C   0  0  0  0  0  0  0  0  0  0  0  0
   -3.8860    9.4580   32.8070 O   0  0  0  0  0  0  0  0  0  0  0  0
   -3.8340    6.8550   31.1470 C   0  0  0  0  0  0  0  0  0  0  0  0
   -3.4650    6.5150   32.5950 C   0  0  0  0  0  0  0  0  0  0  0  0
   -2.5780    7.0710   30.2100 C   0  0  0  0  0  0  0  0  0  0  0  0
   -3.3260    4.9680   32.8930 C   0  0  0  0  0  0  0  0  0  0  0  0
   -5.1000    7.5280   29.0494 H   0  0  0  0  0  0  0  0  0  0  0  0
   -5.5761    7.8976   31.8075 H   0  0  0  0  0  0  0  0  0  0  0  0
   -4.3947    6.0106   30.7443 H   0  0  0  0  0  0  0  0  0  0  0  0
   -2.5404    7.0233   32.8588 H   0  0  0  0  0  0  0  0  0  0  0  0
   -4.2505    6.8731   33.2590 H   0  0  0  0  0  0  0  0  0  0  0  0
   -1.9927    6.1530   30.1790 H   0  0  0  0  0  0  0  0  0  0  0  0
   -2.8828    7.3157   29.1953 H   0  0  0  0  0  0  0  0  0  0  0  0
   -1.9363    7.8572   30.5934 H   0  0  0  0  0  0  0  0  0  0  0  0
   -2.3159    4.6634   32.6285 H   0  0  0  0  0  0  0  0  0  0  0  0
   -3.4211    4.8442   33.9676 H   0  0  0  0  0  0  0  0  0  0  0  0
   -4.1186    4.4009   32.4060 H   0  0  0  0  0  0  0  0  0  0  0  0
   -3.5700   10.1480   30.6970 N   0  0  0  0  0  0  0  0  0  0  0  0
   -2.8570   11.3440   31.1230 C   0  0  0  0  0  0  0  0  0  0  0  0
   -1.4150   11.0480   31.4910 C   0  0  0  0  0  0  0  0  0  0  0  0
   -0.9870    9.8820   31.5690 O   0  0  0  0  0  0  0  0  0  0  0  0
   -3.7009    9.9710   29.7069 H   0  0  0  0  0  0  0  0  0  0  0  0
   -2.8679   12.0754   30.3168 H   0  0  0  0  0  0  0  0  0  0  0  0
   -3.3431   11.7851   31.9867 H   0  0  0  0  0  0  0  0  0  0  0  0
   -0.6280   12.1100   31.6570 N   0  0  0  0  0  0  0  0  0  0  0  0
    0.7950   11.9330   31.9360 C   0  0  0  0  0  0  0  0  0  0  0  0
    1.1570   12.5510   33.2910 C   0  0  0  0  0  0  0  0  0  0  0  0
    0.6710   13.6450   33.6600 O   0  0  0  0  0  0  0  0  0  0  0  0
    1.6350   12.5320   30.8080 C   0  0  0  0  0  0  0  0  0  0  0  0
    1.7500   11.6110   29.6010 C   0  0  0  0  0  0  0  0  0  0  0  0
    2.5850   12.3070   28.1680 S   0  0  0  0  0  0  0  0  0  0  0  0
    1.4690   13.7300   27.6020 C   0  0  0  0  0  0  0  0  0  0  0  0
   -0.9951   13.0459   31.5253 H   0  0  0  0  0  0  0  0  0  0  0  0
    1.0617   10.8789   32.0079 H   0  0  0  0  0  0  0  0  0  0  0  0
    1.1956   13.4708   30.4929 H   0  0  0  0  0  0  0  0  0  0  0  0
    2.6420   12.7358   31.1723 H   0  0  0  0  0  0  0  0  0  0  0  0
    2.2866   10.7113   29.9050 H   0  0  0  0  0  0  0  0  0  0  0  0
    0.7476   11.3125   29.2927 H   0  0  0  0  0  0  0  0  0  0  0  0
    1.8405   14.1144   26.6531 H   0  0  0  0  0  0  0  0  0  0  0  0
    0.4513   13.3632   27.4753 H   0  0  0  0  0  0  0  0  0  0  0  0
    1.4774   14.5248   28.3472 H   0  0  0  0  0  0  0  0  0  0  0  0
    1.8196   12.0071   33.8899 H   0  0  0  0  0  0  0  0  0  0  0  0
    7.0132   12.5365   31.5437 H   0  0  0  0  0  0  0  0  0  0  0  0
    6.7170   13.3900   31.7790 N   0  0  0  0  0  0  0  0  0  0  0  0
    7.0470   14.5710   30.9740 C   0  0  0  0  0  0  0  0  0  0  0  0
    8.5500   14.8980   30.9460 C   0  0  0  0  0  0  0  0  0  0  0  0
    9.1250   15.2020   29.9000 O   0  0  0  0  0  0  0  0  0  0  0  0
    6.2340   15.7810   31.4630 C   0  0  0  0  0  0  0  0  0  0  0  0
    4.7440   15.7710   31.1160 C   0  0  0  0  0  0  0  0  0  0  0  0
    4.0370   17.0420   31.6440 C   0  0  0  0  0  0  0  0  0  0  0  0
    4.5370   15.5940   29.6350 C   0  0  0  0  0  0  0  0  0  0  0  0
    6.0443   13.4761   32.5350 H   0  0  0  0  0  0  0  0  0  0  0  0
    6.7976   14.3594   29.9353 H   0  0  0  0  0  0  0  0  0  0  0  0
    6.3385   15.8728   32.5440 H   0  0  0  0  0  0  0  0  0  0  0  0
    6.6646   16.6798   31.0209 H   0  0  0  0  0  0  0  0  0  0  0  0
    4.2792   14.9187   31.6086 H   0  0  0  0  0  0  0  0  0  0  0  0
    4.5183   17.9337   31.2508 H   0  0  0  0  0  0  0  0  0  0  0  0
    2.9897   17.0317   31.3491 H   0  0  0  0  0  0  0  0  0  0  0  0
    4.0909   17.0542   32.7328 H   0  0  0  0  0  0  0  0  0  0  0  0
    4.7785   14.5756   29.3328 H   0  0  0  0  0  0  0  0  0  0  0  0
    3.4865   15.7575   29.3979 H   0  0  0  0  0  0  0  0  0  0  0  0
    5.1390   16.3086   29.0763 H   0  0  0  0  0  0  0  0  0  0  0  0
    9.0326   14.8446   31.8727 H   0  0  0  0  0  0  0  0  0  0  0  0
    9.7742    8.9527   29.5833 H   0  0  0  0  0  0  0  0  0  0  0  0
    9.2400    9.6130   29.1940 N   0  0  0  0  0  0  0  0  0  0  0  0
    9.0560    9.6680   27.7470 C   0  0  0  0  0  0  0  0  0  0  0  0
   10.3730    9.7930   26.9940 C   0  0  0  0  0  0  0  0  0  0  0  0
   10.5850    9.0840   26.0140 O   0  0  0  0  0  0  0  0  0  0  0  0
    8.0940   10.7660   27.3430 C   0  0  0  0  0  0  0  0  0  0  0  0
    6.6580   10.6030   27.8520 C   0  0  0  0  0  0  0  0  0  0  0  0
    5.8770   11.6890   27.2050 C   0  0  0  0  0  0  0  0  0  0  0  0
    6.0460    9.2530   27.5590 C   0  0  0  0  0  0  0  0  0  0  0  0
    8.8054   10.3233   29.7778 H   0  0  0  0  0  0  0  0  0  0  0  0
    8.6358    8.7141   27.4256 H   0  0  0  0  0  0  0  0  0  0  0  0
    8.4810   11.7250   27.6921 H   0  0  0  0  0  0  0  0  0  0  0  0
    8.0714   10.7919   26.2525 H   0  0  0  0  0  0  0  0  0  0  0  0
    6.6170   10.7383   28.9261 H   0  0  0  0  0  0  0  0  0  0  0  0
    5.9733   11.6218   26.1295 H   0  0  0  0  0  0  0  0  0  0  0  0
    4.8424   11.5292   27.4408 H   0  0  0  0  0  0  0  0  0  0  0  0
    6.1962   12.6661   27.5659 H   0  0  0  0  0  0  0  0  0  0  0  0
    6.5543    8.4701   28.1185 H   0  0  0  0  0  0  0  0  0  0  0  0
    4.9979    9.2522   27.8623 H   0  0  0  0  0  0  0  0  0  0  0  0
    6.1051    9.0569   26.4917 H   0  0  0  0  0  0  0  0  0  0  0  0
   11.0592   10.4933   27.3713 H   0  0  0  0  0  0  0  0  0  0  0  0
    7.6096    6.5377   19.0667 H   0  0  0  0  0  0  0  0  0  0  0  0
    7.8400    7.0530   18.3280 N   0  0  0  0  0  0  0  0  0  0  0  0
    8.1820    8.4800   18.5200 C   0  0  0  0  0  0  0  0  0  0  0  0
    7.3460    9.3990   17.6240 C   0  0  0  0  0  0  0  0  0  0  0  0
    7.7870   10.5390   17.2750 O   0  0  0  0  0  0  0  0  0  0  0  0
    9.7300    8.7690   18.3170 C   0  0  0  0  0  0  0  0  0  0  0  0
   10.4950    8.3020   19.4730 C   0  0  0  0  0  0  0  0  0  0  0  0
   10.2770    8.1340   17.0360 C   0  0  0  0  0  0  0  0  0  0  0  0
    7.8846    6.6246   17.4124 H   0  0  0  0  0  0  0  0  0  0  0  0
    7.9295    8.8118   19.5254 H   0  0  0  0  0  0  0  0  0  0  0  0
    9.9107    9.8325   18.2535 H   0  0  0  0  0  0  0  0  0  0  0  0
   11.5423    8.5762   19.3544 H   0  0  0  0  0  0  0  0  0  0  0  0
   10.1085    8.7566   20.3838 H   0  0  0  0  0  0  0  0  0  0  0  0
   10.4200    7.2171   19.5613 H   0  0  0  0  0  0  0  0  0  0  0  0
    9.6839    8.4479   16.1857 H   0  0  0  0  0  0  0  0  0  0  0  0
   11.3082    8.4511   16.8811 H   0  0  0  0  0  0  0  0  0  0  0  0
   10.2528    7.0476   17.1109 H   0  0  0  0  0  0  0  0  0  0  0  0
    6.3996    9.0264   17.3465 H   0  0  0  0  0  0  0  0  0  0  0  0
    4.9232   11.1007   17.2755 H   0  0  0  0  0  0  0  0  0  0  0  0
    4.9260   11.2400   18.1850 N   0  0  0  0  0  0  0  0  0  0  0  0
    4.6220   12.5660   18.7330 C   0  0  0  0  0  0  0  0  0  0  0  0
    5.4090   13.6620   18.0160 C   0  0  0  0  0  0  0  0  0  0  0  0
    4.8470   14.7240   17.7320 O   0  0  0  0  0  0  0  0  0  0  0  0
    4.8940   12.6130   20.2540 C   0  0  0  0  0  0  0  0  0  0  0  0
    4.7960   14.0070   20.8390 C   0  0  0  0  0  0  0  0  0  0  0  0
    3.5590   14.5590   21.1410 C   0  0  0  0  0  0  0  0  0  0  0  0
    5.9550   14.7660   21.0380 C   0  0  0  0  0  0  0  0  0  0  0  0
    3.4470   15.9160   21.6250 C   0  0  0  0  0  0  0  0  0  0  0  0
    5.8800   16.0910   21.5270 C   0  0  0  0  0  0  0  0  0  0  0  0
    4.6300   16.6470   21.8440 C   0  0  0  0  0  0  0  0  0  0  0  0
    5.1030   10.4629   18.8131 H   0  0  0  0  0  0  0  0  0  0  0  0
    3.5660   12.7838   18.5698 H   0  0  0  0  0  0  0  0  0  0  0  0
    4.1700   11.9757   20.7537 H   0  0  0  0  0  0  0  0  0  0  0  0
    5.8903   12.2141   20.4519 H   0  0  0  0  0  0  0  0  0  0  0  0
    2.6694   13.9875   20.9532 H   0  0  0  0  0  0  0  0  0  0  0  0
    6.9188   14.3356   20.8111 H   0  0  0  0  0  0  0  0  0  0  0  0
    2.4819   16.3487   21.8483 H   0  0  0  0  0  0  0  0  0  0  0  0
    6.7831   16.6585   21.6948 H   0  0  0  0  0  0  0  0  0  0  0  0
    4.5725   17.6484   22.2467 H   0  0  0  0  0  0  0  0  0  0  0  0
    6.6980   13.4340   17.7250 N   0  0  0  0  0  0  0  0  0  0  0  0
    7.5280   14.5140   17.2040 C   0  0  0  0  0  0  0  0  0  0  0  0
    7.1950   14.9000   15.7700 C   0  0  0  0  0  0  0  0  0  0  0  0
    7.6700   15.9390   15.2640 O   0  0  0  0  0  0  0  0  0  0  0  0
    9.0360   14.2450   17.4070 C   0  0  0  0  0  0  0  0  0  0  0  0
    9.3830   13.9250   18.8450 C   0  0  0  0  0  0  0  0  0  0  0  0
    9.4920   14.9400   19.8130 C   0  0  0  0  0  0  0  0  0  0  0  0
    9.5830   12.5930   19.2560 C   0  0  0  0  0  0  0  0  0  0  0  0
    9.7970   14.6210   21.1860 C   0  0  0  0  0  0  0  0  0  0  0  0
    9.8550   12.2760   20.5940 C   0  0  0  0  0  0  0  0  0  0  0  0
    9.9820   13.2920   21.5490 C   0  0  0  0  0  0  0  0  0  0  0  0
   10.2700   12.9320   22.8640 O   0  0  0  0  0  0  0  0  0  0  0  0
    7.1073   12.5291   17.9287 H   0  0  0  0  0  0  0  0  0  0  0  0
    7.3016   15.4019   17.7960 H   0  0  0  0  0  0  0  0  0  0  0  0
    9.3353   13.4105   16.7710 H   0  0  0  0  0  0  0  0  0  0  0  0
    9.6036   15.1233   17.0964 H   0  0  0  0  0  0  0  0  0  0  0  0
    9.3499   15.9721   19.5235 H   0  0  0  0  0  0  0  0  0  0  0  0
    9.5060   11.8178   18.5159 H   0  0  0  0  0  0  0  0  0  0  0  0
    9.8969   15.3967   21.9297 H   0  0  0  0  0  0  0  0  0  0  0  0
   10.0049   11.2473   20.8786 H   0  0  0  0  0  0  0  0  0  0  0  0
   10.6191   12.0387   22.9065 H   0  0  0  0  0  0  0  0  0  0  0  0
    6.5481   14.2649   15.2528 H   0  0  0  0  0  0  0  0  0  0  0  0
    1.1372   21.3716   24.7425 H   0  0  0  0  0  0  0  0  0  0  0  0
    1.3900   20.9060   25.5050 N   0  0  0  0  0  0  0  0  0  0  0  0
    0.6970   19.6710   25.9150 C   0  0  0  0  0  0  0  0  0  0  0  0
    0.2170   19.9280   27.3060 C   0  0  0  0  0  0  0  0  0  0  0  0
    1.0320   20.2010   28.1750 O   0  0  0  0  0  0  0  0  0  0  0  0
    1.6610   18.4230   25.8650 C   0  0  0  0  0  0  0  0  0  0  0  0
    0.9500   17.1610   26.3770 C   0  0  0  0  0  0  0  0  0  0  0  0
    2.1750   18.2230   24.4360 C   0  0  0  0  0  0  0  0  0  0  0  0
    2.1492   21.2659   26.0730 H   0  0  0  0  0  0  0  0  0  0  0  0
   -0.1474   19.4661   25.2710 H   0  0  0  0  0  0  0  0  0  0  0  0
    2.5168   18.5909   26.4882 H   0  0  0  0  0  0  0  0  0  0  0  0
    1.6194   16.3101   26.2686 H   0  0  0  0  0  0  0  0  0  0  0  0
    0.6924   17.2716   27.4302 H   0  0  0  0  0  0  0  0  0  0  0  0
    0.0465   16.9890   25.7924 H   0  0  0  0  0  0  0  0  0  0  0  0
    2.7717   17.3123   24.3846 H   0  0  0  0  0  0  0  0  0  0  0  0
    1.3351   18.1492   23.7484 H   0  0  0  0  0  0  0  0  0  0  0  0
    2.7998   19.0636   24.1440 H   0  0  0  0  0  0  0  0  0  0  0  0
   -0.8253   19.8793   27.4553 H   0  0  0  0  0  0  0  0  0  0  0  0
    3.1933   21.7912   30.1023 H   0  0  0  0  0  0  0  0  0  0  0  0
    3.3130   21.2640   29.3440 N   0  0  0  0  0  0  0  0  0  0  0  0
    4.6100   21.0250   28.6840 C   0  0  0  0  0  0  0  0  0  0  0  0
    4.6080   21.8850   27.4360 C   0  0  0  0  0  0  0  0  0  0  0  0
    3.5370   22.0650   26.7720 O   0  0  0  0  0  0  0  0  0  0  0  0
    4.7380   19.5000   28.3210 C   0  0  0  0  0  0  0  0  0  0  0  0
    5.9850   19.0120   27.5280 C   0  0  0  0  0  0  0  0  0  0  0  0
    7.0710   18.3070   28.0280 C   0  0  0  0  0  0  0  0  0  0  0  0
    6.2050   19.1160   26.1180 C   0  0  0  0  0  0  0  0  0  0  0  0
    7.9510   18.0160   27.0150 N   0  0  0  0  0  0  0  0  0  0  0  0
    7.4490   18.5060   25.8360 C   0  0  0  0  0  0  0  0  0  0  0  0
    5.4890   19.7020   25.0590 C   0  0  0  0  0  0  0  0  0  0  0  0
    7.9710   18.4490   24.5580 C   0  0  0  0  0  0  0  0  0  0  0  0
    6.0140   19.6370   23.7800 C   0  0  0  0  0  0  0  0  0  0  0  0
    7.2280   19.0310   23.5390 C   0  0  0  0  0  0  0  0  0  0  0  0
    2.4800   20.8979   28.8936 H   0  0  0  0  0  0  0  0  0  0  0  0
    5.4303   21.3057   29.3338 H   0  0  0  0  0  0  0  0  0  0  0  0
    4.7120   18.9424   29.2545 H   0  0  0  0  0  0  0  0  0  0  0  0
    3.8572   19.2151   27.7793 H   0  0  0  0  0  0  0  0  0  0  0  0
    7.2023   18.0275   29.0664 H   0  0  0  0  0  0  0  0  0  0  0  0
    8.7969   17.4532   27.1237 H   0  0  0  0  0  0  0  0  0  0  0  0
    4.5462   20.1936   25.2446 H   0  0  0  0  0  0  0  0  0  0  0  0
    8.9147   17.9674   24.3776 H   0  0  0  0  0  0  0  0  0  0  0  0
    5.4710   20.0989   22.9691 H   0  0  0  0  0  0  0  0  0  0  0  0
    7.6160   19.0114   22.5305 H   0  0  0  0  0  0  0  0  0  0  0  0
    5.5253   22.3126   27.1523 H   0  0  0  0  0  0  0  0  0  0  0  0
   -5.2684   14.1985   28.9811 H   0  0  0  0  0  0  0  0  0  0  0  0
   -5.2390   14.3420   28.0610 N   0  0  0  0  0  0  0  0  0  0  0  0
   -4.1510   15.0640   27.3940 C   0  0  0  0  0  0  0  0  0  0  0  0
   -4.6910   15.9240   26.2560 C   0  0  0  0  0  0  0  0  0  0  0  0
   -5.5140   15.4600   25.4820 O   0  0  0  0  0  0  0  0  0  0  0  0
   -3.1280   14.0570   26.8270 C   0  0  0  0  0  0  0  0  0  0  0  0
   -2.5760   13.2790   27.8800 O   0  0  0  0  0  0  0  0  0  0  0  0
   -1.9170   14.7960   26.1980 C   0  0  0  0  0  0  0  0  0  0  0  0
   -5.9334   13.8780   27.4808 H   0  0  0  0  0  0  0  0  0  0  0  0
   -3.6395   15.7039   28.1056 H   0  0  0  0  0  0  0  0  0  0  0  0
   -3.5985   13.4075   26.0896 H   0  0  0  0  0  0  0  0  0  0  0  0
   -2.0971   12.5540   27.4484 H   0  0  0  0  0  0  0  0  0  0  0  0
   -1.4746   15.4706   26.9299 H   0  0  0  0  0  0  0  0  0  0  0  0
   -1.1760   14.0650   25.8766 H   0  0  0  0  0  0  0  0  0  0  0  0
   -2.2327   15.3585   25.3213 H   0  0  0  0  0  0  0  0  0  0  0  0
   -4.3231   16.9104   26.1664 H   0  0  0  0  0  0  0  0  0  0  0  0
    5.7272   11.6595   23.5804 C   0  0  0  0  0  0  0  0  0  0  0  0
    1.0678   11.1305   24.0575 N   0  0  0  0  0  0  0  0  0  0  0  0
    4.2527   15.0652   25.3896 O   0  0  0  0  0  0  0  0  0  0  0  0
    6.5999   12.6785   23.8853 C   0  0  0  0  0  0  0  0  0  0  0  0
    2.2319   10.0022   25.5936 N   0  0  0  0  0  0  0  0  0  0  0  0
    6.1207   10.5151   22.9924 O   0  0  0  0  0  0  0  0  0  0  0  0
    6.1448   13.8148   24.5299 C   0  0  0  0  0  0  0  0  0  0  0  0
   -1.6319   10.6540   26.5179 N   0  0  0  0  0  0  0  0  0  0  0  0
    4.8001   13.9297   24.8534 C   0  0  0  0  0  0  0  0  0  0  0  0
    0.4713    9.7852   27.2325 N   0  0  0  0  0  0  0  0  0  0  0  0
    3.9093   12.9032   24.5274 C   0  0  0  0  0  0  0  0  0  0  0  0
   -2.0287   11.5087   24.4199 N   0  0  0  0  0  0  0  0  0  0  0  0
    4.3486   11.7655   23.8794 C   0  0  0  0  0  0  0  0  0  0  0  0
    5.0386   16.0044   26.0897 C   0  0  0  0  0  0  0  0  0  0  0  0
    3.4652   10.5905   23.5545 C   0  0  0  0  0  0  0  0  0  0  0  0
    2.2601   10.5407   24.3998 C   0  0  0  0  0  0  0  0  0  0  0  0
    0.2090   10.8616   25.0924 C   0  0  0  0  0  0  0  0  0  0  0  0
    0.9618   10.1771   26.0476 C   0  0  0  0  0  0  0  0  0  0  0  0
   -1.1934   10.9976   25.3109 C   0  0  0  0  0  0  0  0  0  0  0  0
   -0.8124   10.0676   27.3663 C   0  0  0  0  0  0  0  0  0  0  0  0
    7.4812   10.1345   23.0169 C   0  0  0  0  0  0  0  0  0  0  0  0
   -1.3183    9.7516   28.5663 F   0  0  0  0  0  0  0  0  0  0  0  0
    0.8505   11.4824   23.1385 H   0  0  0  0  0  0  0  0  0  0  0  0
    7.6441   12.5929   23.6472 H   0  0  0  0  0  0  0  0  0  0  0  0
    6.8324   14.6095   24.7732 H   0  0  0  0  0  0  0  0  0  0  0  0
    2.8756   13.0148   24.7955 H   0  0  0  0  0  0  0  0  0  0  0  0
   -3.0333   11.5403   24.6169 H   0  0  0  0  0  0  0  0  0  0  0  0
   -1.7441   11.7099   23.4720 H   0  0  0  0  0  0  0  0  0  0  0  0
    5.6127   16.6260   25.3944 H   0  0  0  0  0  0  0  0  0  0  0  0
    4.3357   16.6306   26.6333 H   0  0  0  0  0  0  0  0  0  0  0  0
    5.7187   15.5171   26.7921 H   0  0  0  0  0  0  0  0  0  0  0  0
    4.0390    9.6763   23.7289 H   0  0  0  0  0  0  0  0  0  0  0  0
    3.1792   10.6162   22.4982 H   0  0  0  0  0  0  0  0  0  0  0  0
    7.9099   10.2437   24.0148 H   0  0  0  0  0  0  0  0  0  0  0  0
    7.4949    9.0793   22.7479 H   0  0  0  0  0  0  0  0  0  0  0  0
    8.0635   10.7139   22.2923 H   0  0  0  0  0  0  0  0  0  0  0  0
    2.3300    7.0880   23.2250 O   0  0  0  0  0  0  0  0  0  0  0  0
    1.4552    7.2405   23.6277 H   0  0  0  0  0  0  0  0  0  0  0  0
    2.2727    6.1599   22.9333 H   0  0  0  0  0  0  0  0  0  0  0  0
    0.8110   12.3650   21.3300 O   0  0  0  0  0  0  0  0  0  0  0  0
   -0.1592   12.4485   21.2297 H   0  0  0  0  0  0  0  0  0  0  0  0
    1.0578   13.2423   21.6386 H   0  0  0  0  0  0  0  0  0  0  0  0
    6.1910    7.0590   24.7350 O   0  0  0  0  0  0  0  0  0  0  0  0
    7.0444    7.3432   25.1204 H   0  0  0  0  0  0  0  0  0  0  0  0
    5.5051    7.4145   25.3404 H   0  0  0  0  0  0  0  0  0  0  0  0
   -3.9060   14.3600   22.8170 O   0  0  0  0  0  0  0  0  0  0  0  0
   -4.5425   15.0857   22.7491 H   0  0  0  0  0  0  0  0  0  0  0  0
   -4.3281   13.7447   23.4409 H   0  0  0  0  0  0  0  0  0  0  0  0
   -3.9370   10.9900   27.7830 O   0  0  0  0  0  0  0  0  0  0  0  0
   -3.6301   11.8907   27.9334 H   0  0  0  0  0  0  0  0  0  0  0  0
   -4.6318   11.1126   27.0990 H   0  0  0  0  0  0  0  0  0  0  0  0
    8.7050    7.5410   24.9490 O   0  0  0  0  0  0  0  0  0  0  0  0
    9.4726    8.0612   25.2381 H   0  0  0  0  0  0  0  0  0  0  0  0
    9.0103    7.0932   24.1426 H   0  0  0  0  0  0  0  0  0  0  0  0
    9.2700    6.1730   22.4040 O   0  0  0  0  0  0  0  0  0  0  0  0
    8.6451    6.4385   21.7083 H   0  0  0  0  0  0  0  0  0  0  0  0
    9.0227    5.2563   22.5735 H   0  0  0  0  0  0  0  0  0  0  0  0
    4.9890    9.4200   20.3070 O   0  0  0  0  0  0  0  0  0  0  0  0
    5.2391    9.4638   21.2394 H   0  0  0  0  0  0  0  0  0  0  0  0
    4.7381    8.4929   20.1924 H   0  0  0  0  0  0  0  0  0  0  0  0
   10.3280   14.3260   25.1270 O   0  0  0  0  0  0  0  0  0  0  0  0
   10.1039   13.9104   24.2802 H   0  0  0  0  0  0  0  0  0  0  0  0
    9.5385   14.8238   25.3731 H   0  0  0  0  0  0  0  0  0  0  0  0
    1.3130    7.6590   28.8280 O   0  0  0  0  0  0  0  0  0  0  0  0
    1.2924    7.8300   29.7881 H   0  0  0  0  0  0  0  0  0  0  0  0
    1.1613    8.5275   28.4310 H   0  0  0  0  0  0  0  0  0  0  0  0
   -2.1060   12.8390   21.5270 O   0  0  0  0  0  0  0  0  0  0  0  0
   -2.7551   12.3135   21.0330 H   0  0  0  0  0  0  0  0  0  0  0  0
   -2.6870   13.4488   22.0321 H   0  0  0  0  0  0  0  0  0  0  0  0
    3.8350    7.8350   25.6490 O   0  0  0  0  0  0  0  0  0  0  0  0
    3.4405    7.4656   24.8413 H   0  0  0  0  0  0  0  0  0  0  0  0
    3.2941    8.6308   25.7931 H   0  0  0  0  0  0  0  0  0  0  0  0
  1  2  1  0  0  0  0
  2  3  1  0  0  0  0
  3  4  1  0  0  0  0
  4  5  2  0  0  0  0
  3  6  1  0  0  0  0
  6  7  1  0  0  0  0
  7  8  2  0  0  0  0
  7  9  4  0  0  0  0
  2 10  1  0  0  0  0
  3 11  1  0  0  0  0
  6 12  1  0  0  0  0
  6 13  1  0  0  0  0
  9 14  1  0  0  0  0
  9 15  1  0  0  0  0
  4 16  4  0  0  0  0
 16 17  1  0  0  0  0
 17 18  1  0  0  0  0
 18 19  2  0  0  0  0
 17 20  1  0  0  0  0
 20 21  1  0  0  0  0
 16 22  1  0  0  0  0
 17 23  1  0  0  0  0
 20 24  1  0  0  0  0
 20 25  1  0  0  0  0
 21 26  1  0  0  0  0
 18 27  1  0  0  0  0
 28 29  1  0  0  0  0
 29 30  1  0  0  0  0
 30 31  1  0  0  0  0
 31 32  2  0  0  0  0
 30 33  1  0  0  0  0
 29 34  1  0  0  0  0
 30 35  1  0  0  0  0
 33 36  1  0  0  0  0
 33 37  1  0  0  0  0
 33 38  1  0  0  0  0
 31 39  1  0  0  0  0
 40 41  1  0  0  0  0
 41 42  1  0  0  0  0
 42 43  1  0  0  0  0
 43 44  2  0  0  0  0
 42 45  1  0  0  0  0
 45 46  1  0  0  0  0
 46 47  2  0  0  0  0
 46 48  4  0  0  0  0
 41 49  1  0  0  0  0
 42 50  1  0  0  0  0
 45 51  1  0  0  0  0
 45 52  1  0  0  0  0
 43 53  1  0  0  0  0
 54 55  1  0  0  0  0
 55 56  1  0  0  0  0
 56 57  1  0  0  0  0
 57 58  2  0  0  0  0
 56 59  1  0  0  0  0
 59 60  1  0  0  0  0
 59 61  1  0  0  0  0
 60 62  1  0  0  0  0
 55 63  1  0  0  0  0
 56 64  1  0  0  0  0
 59 65  1  0  0  0  0
 60 66  1  0  0  0  0
 60 67  1  0  0  0  0
 61 68  1  0  0  0  0
 61 69  1  0  0  0  0
 61 70  1  0  0  0  0
 62 71  1  0  0  0  0
 62 72  1  0  0  0  0
 62 73  1  0  0  0  0
 57 74  4  0  0  0  0
 74 75  1  0  0  0  0
 75 76  1  0  0  0  0
 76 77  2  0  0  0  0
 74 78  1  0  0  0  0
 75 79  1  0  0  0  0
 75 80  1  0  0  0  0
 76 81  4  0  0  0  0
 81 82  1  0  0  0  0
 82 83  1  0  0  0  0
 83 84  2  0  0  0  0
 82 85  1  0  0  0  0
 85 86  1  0  0  0  0
 86 87  1  0  0  0  0
 87 88  1  0  0  0  0
 81 89  1  0  0  0  0
 82 90  1  0  0  0  0
 85 91  1  0  0  0  0
 85 92  1  0  0  0  0
 86 93  1  0  0  0  0
 86 94  1  0  0  0  0
 88 95  1  0  0  0  0
 88 96  1  0  0  0  0
 88 97  1  0  0  0  0
 83 98  1  0  0  0  0
 99100  1  0  0  0  0
100101  1  0  0  0  0
101102  1  0  0  0  0
102103  2  0  0  0  0
101104  1  0  0  0  0
104105  1  0  0  0  0
105106  1  0  0  0  0
105107  1  0  0  0  0
100108  1  0  0  0  0
101109  1  0  0  0  0
104110  1  0  0  0  0
104111  1  0  0  0  0
105112  1  0  0  0  0
106113  1  0  0  0  0
106114  1  0  0  0  0
106115  1  0  0  0  0
107116  1  0  0  0  0
107117  1  0  0  0  0
107118  1  0  0  0  0
102119  1  0  0  0  0
120121  1  0  0  0  0
121122  1  0  0  0  0
122123  1  0  0  0  0
123124  2  0  0  0  0
122125  1  0  0  0  0
125126  1  0  0  0  0
126127  1  0  0  0  0
126128  1  0  0  0  0
121129  1  0  0  0  0
122130  1  0  0  0  0
125131  1  0  0  0  0
125132  1  0  0  0  0
126133  1  0  0  0  0
127134  1  0  0  0  0
127135  1  0  0  0  0
127136  1  0  0  0  0
128137  1  0  0  0  0
128138  1  0  0  0  0
128139  1  0  0  0  0
123140  1  0  0  0  0
141142  1  0  0  0  0
142143  1  0  0  0  0
143144  1  0  0  0  0
144145  2  0  0  0  0
143146  1  0  0  0  0
146147  1  0  0  0  0
146148  1  0  0  0  0
142149  1  0  0  0  0
143150  1  0  0  0  0
146151  1  0  0  0  0
147152  1  0  0  0  0
147153  1  0  0  0  0
147154  1  0  0  0  0
148155  1  0  0  0  0
148156  1  0  0  0  0
148157  1  0  0  0  0
144158  1  0  0  0  0
159160  1  0  0  0  0
160161  1  0  0  0  0
161162  1  0  0  0  0
162163  2  0  0  0  0
161164  1  0  0  0  0
164165  1  0  0  0  0
165166  4  0  0  0  0
165167  4  0  0  0  0
166168  4  0  0  0  0
167169  4  0  0  0  0
168170  4  0  0  0  0
169170  4  0  0  0  0
160171  1  0  0  0  0
161172  1  0  0  0  0
164173  1  0  0  0  0
164174  1  0  0  0  0
166175  1  0  0  0  0
167176  1  0  0  0  0
168177  1  0  0  0  0
169178  1  0  0  0  0
170179  1  0  0  0  0
162180  4  0  0  0  0
180181  1  0  0  0  0
181182  1  0  0  0  0
182183  2  0  0  0  0
181184  1  0  0  0  0
184185  1  0  0  0  0
185186  4  0  0  0  0
185187  4  0  0  0  0
186188  4  0  0  0  0
187189  4  0  0  0  0
188190  4  0  0  0  0
189190  4  0  0  0  0
190191  1  0  0  0  0
180192  1  0  0  0  0
181193  1  0  0  0  0
184194  1  0  0  0  0
184195  1  0  0  0  0
186196  1  0  0  0  0
187197  1  0  0  0  0
188198  1  0  0  0  0
189199  1  0  0  0  0
191200  1  0  0  0  0
182201  1  0  0  0  0
202203  1  0  0  0  0
203204  1  0  0  0  0
204205  1  0  0  0  0
205206  2  0  0  0  0
204207  1  0  0  0  0
207208  1  0  0  0  0
207209  1  0  0  0  0
203210  1  0  0  0  0
204211  1  0  0  0  0
207212  1  0  0  0  0
208213  1  0  0  0  0
208214  1  0  0  0  0
208215  1  0  0  0  0
209216  1  0  0  0  0
209217  1  0  0  0  0
209218  1  0  0  0  0
205219  1  0  0  0  0
220221  1  0  0  0  0
221222  1  0  0  0  0
222223  1  0  0  0  0
223224  2  0  0  0  0
222225  1  0  0  0  0
225226  1  0  0  0  0
226227  2  0  0  0  0
226228  4  0  0  0  0
227229  4  0  0  0  0
228230  4  0  0  0  0
229230  1  0  0  0  0
228231  4  0  0  0  0
230232  4  0  0  0  0
231233  4  0  0  0  0
232234  4  0  0  0  0
233234  4  0  0  0  0
221235  1  0  0  0  0
222236  1  0  0  0  0
225237  1  0  0  0  0
225238  1  0  0  0  0
227239  1  0  0  0  0
229240  1  0  0  0  0
231241  1  0  0  0  0
232242  1  0  0  0  0
233243  1  0  0  0  0
234244  1  0  0  0  0
223245  1  0  0  0  0
246247  1  0  0  0  0
247248  1  0  0  0  0
248249  1  0  0  0  0
249250  2  0  0  0  0
248251  1  0  0  0  0
251252  1  0  0  0  0
251253  1  0  0  0  0
247254  1  0  0  0  0
248255  1  0  0  0  0
251256  1  0  0  0  0
252257  1  0  0  0  0
253258  1  0  0  0  0
253259  1  0  0  0  0
253260  1  0  0  0  0
249261  1  0  0  0  0
262265  4  0  0  0  0
262267  1  0  0  0  0
265268  4  0  0  0  0
264270  1  0  0  0  0
268270  4  0  0  0  0
270272  4  0  0  0  0
262274  4  0  0  0  0
272274  4  0  0  0  0
264275  1  0  0  0  0
274276  1  0  0  0  0
263277  4  0  0  0  0
266277  2  0  0  0  0
276277  1  0  0  0  0
263278  1  0  0  0  0
266279  4  0  0  0  0
271279  4  0  0  0  0
278279  4  0  0  0  0
269280  4  0  0  0  0
273280  4  0  0  0  0
278280  1  0  0  0  0
269281  4  0  0  0  0
271281  4  0  0  0  0
267282  1  0  0  0  0
281283  1  0  0  0  0
263284  1  0  0  0  0
265285  1  0  0  0  0
268286  1  0  0  0  0
272287  1  0  0  0  0
273288  1  0  0  0  0
273289  1  0  0  0  0
275290  1  0  0  0  0
275291  1  0  0  0  0
275292  1  0  0  0  0
276293  1  0  0  0  0
276294  1  0  0  0  0
282295  1  0  0  0  0
282296  1  0  0  0  0
282297  1  0  0  0  0
298299  1  0  0  0  0
298300  1  0  0  0  0
301302  1  0  0  0  0
301303  1  0  0  0  0
304305  1  0  0  0  0
304306  1  0  0  0  0
307308  1  0  0  0  0
307309  1  0  0  0  0
310311  1  0  0  0  0
310312  1  0  0  0  0
313314  1  0  0  0  0
313315  1  0  0  0  0
316317  1  0  0  0  0
316318  1  0  0  0  0
319320  1  0  0  0  0
319321  1  0  0  0  0
322323  1  0  0  0  0
322324  1  0  0  0  0
325326  1  0  0  0  0
325327  1  0  0  0  0
328329  1  0  0  0  0
328330  1  0  0  0  0
331332  1  0  0  0  0
331333  1  0  0  0  0
M  CHG  1   1  -1
M  END
