 xtb: 6.6.0 (2ccbbd7)
          01112401093D

 34 36  0     0  0            999 V2000
   50.0865   48.3282   31.2579 C   0  0  0  0  0  0  0  0  0  0  0  0
   50.6970   48.9054   30.1014 O   0  0  0  0  0  0  0  0  0  0  0  0
   50.5638   46.8841   31.5072 C   0  0  0  0  0  0  0  0  0  0  0  0
   50.5397   46.1759   30.1771 N   0  0  0  0  0  0  0  0  0  0  0  0
   52.0194   46.7481   32.0994 C   0  0  0  0  0  0  0  0  0  0  0  0
   51.9290   46.0643   33.3371 O   0  0  0  0  0  0  0  0  0  0  0  0
   52.8868   45.9918   31.0038 C   0  0  0  0  0  0  0  0  0  0  0  0
   53.3171   44.6914   31.3361 O   0  0  0  0  0  0  0  0  0  0  0  0
   51.9925   45.9108   29.7194 C   0  0  0  0  0  0  0  0  0  0  0  0
   55.7311   47.6128   26.5427 N   0  0  0  0  0  0  0  0  0  0  0  0
   55.8424   46.9566   27.7328 C   0  0  0  0  0  0  0  0  0  0  0  0
   54.8571   46.6299   28.5042 N   0  0  0  0  0  0  0  0  0  0  0  0
   53.6214   46.9816   27.9801 C   0  0  0  0  0  0  0  0  0  0  0  0
   53.4535   47.6750   26.7859 C   0  0  0  0  0  0  0  0  0  0  0  0
   54.5586   48.1050   25.9799 C   0  0  0  0  0  0  0  0  0  0  0  0
   54.5761   48.8307   24.9858 O   0  0  0  0  0  0  0  0  0  0  0  0
   52.1129   47.8508   26.5835 N   0  0  0  0  0  0  0  0  0  0  0  0
   51.4220   47.2886   27.6088 C   0  0  0  0  0  0  0  0  0  0  0  0
   52.3167   46.7367   28.5242 C   0  0  0  0  0  0  0  0  0  0  0  0
   50.0705   46.7816   29.4957 H   0  0  0  0  0  0  0  0  0  0  0  0
   56.5615   47.9145   26.0440 H   0  0  0  0  0  0  0  0  0  0  0  0
   50.0225   45.2866   30.2187 H   0  0  0  0  0  0  0  0  0  0  0  0
   51.7311   48.4460   25.8655 H   0  0  0  0  0  0  0  0  0  0  0  0
   52.5286   44.1837   31.6718 H   0  0  0  0  0  0  0  0  0  0  0  0
   51.8221   46.7056   34.0473 H   0  0  0  0  0  0  0  0  0  0  0  0
   51.6558   48.8582   30.1806 H   0  0  0  0  0  0  0  0  0  0  0  0
   56.8481   46.6629   28.0041 H   0  0  0  0  0  0  0  0  0  0  0  0
   50.3487   47.3908   27.6080 H   0  0  0  0  0  0  0  0  0  0  0  0
   52.0087   44.8634   29.4222 H   0  0  0  0  0  0  0  0  0  0  0  0
   53.7687   46.5910   30.7995 H   0  0  0  0  0  0  0  0  0  0  0  0
   52.4249   47.7549   32.2233 H   0  0  0  0  0  0  0  0  0  0  0  0
   49.8722   46.3953   32.1922 H   0  0  0  0  0  0  0  0  0  0  0  0
   49.0167   48.3304   31.0582 H   0  0  0  0  0  0  0  0  0  0  0  0
   50.2681   48.9316   32.1470 H   0  0  0  0  0  0  0  0  0  0  0  0
  1  2  1  0  0  0  0
  1  3  1  0  0  0  0
  3  4  1  0  0  0  0
  3  5  1  0  0  0  0
  5  6  1  0  0  0  0
  5  7  1  0  0  0  0
  7  8  1  0  0  0  0
  4  9  1  0  0  0  0
  7  9  1  0  0  0  0
 10 11  4  0  0  0  0
 11 12  2  0  0  0  0
 12 13  1  0  0  0  0
 13 14  4  0  0  0  0
 10 15  1  0  0  0  0
 14 15  1  0  0  0  0
 15 16  2  0  0  0  0
 14 17  1  0  0  0  0
 17 18  4  0  0  0  0
  9 19  1  0  0  0  0
 13 19  4  0  0  0  0
 18 19  4  0  0  0  0
  4 20  1  0  0  0  0
 10 21  1  0  0  0  0
  4 22  1  0  0  0  0
 17 23  1  0  0  0  0
  8 24  1  0  0  0  0
  6 25  1  0  0  0  0
  2 26  1  0  0  0  0
 11 27  1  0  0  0  0
 18 28  1  0  0  0  0
  9 29  1  0  0  0  0
  7 30  1  0  0  0  0
  5 31  1  0  0  0  0
  3 32  1  0  0  0  0
  1 33  1  0  0  0  0
  1 34  1  0  0  0  0
M  CHG  1   1   1
M  END
