 xtb: 6.6.0 (2ccbbd7)
          01102400323D

250243  0     0  0            999 V2000
   45.7824   42.7157   32.6583 H   0  0  0  0  0  0  0  0  0  0  0  0
   46.1990   43.5230   32.4440 N   0  0  0  0  0  0  0  0  0  0  0  0
   45.5650   44.8300   32.6880 C   0  0  0  0  0  0  0  0  0  0  0  0
   44.3300   45.0440   31.8100 C   0  0  0  0  0  0  0  0  0  0  0  0
   44.3710   44.7740   30.6100 O   0  0  0  0  0  0  0  0  0  0  0  0
   46.5610   45.9740   32.4410 C   0  0  0  0  0  0  0  0  0  0  0  0
   47.7000   45.8650   33.2790 O   0  0  0  0  0  0  0  0  0  0  0  0
   47.1483   43.4777   32.0911 H   0  0  0  0  0  0  0  0  0  0  0  0
   45.2483   44.8807   33.7331 H   0  0  0  0  0  0  0  0  0  0  0  0
   46.8776   45.9504   31.3975 H   0  0  0  0  0  0  0  0  0  0  0  0
   46.0663   46.9265   32.6379 H   0  0  0  0  0  0  0  0  0  0  0  0
   48.0598   44.9551   33.2998 H   0  0  0  0  0  0  0  0  0  0  0  0
   43.4780   45.4339   32.2863 H   0  0  0  0  0  0  0  0  0  0  0  0
   59.0279   43.4962   38.4646 H   0  0  0  0  0  0  0  0  0  0  0  0
   58.7520   44.1110   37.8190 N   0  0  0  0  0  0  0  0  0  0  0  0
   58.8980   45.5610   37.9840 C   0  0  0  0  0  0  0  0  0  0  0  0
   58.3550   46.2010   39.2560 C   0  0  0  0  0  0  0  0  0  0  0  0
   58.7500   47.3150   39.5880 O   0  0  0  0  0  0  0  0  0  0  0  0
   58.3620   46.3250   36.7660 C   0  0  0  0  0  0  0  0  0  0  0  0
   56.8570   46.3880   36.6250 C   0  0  0  0  0  0  0  0  0  0  0  0
   56.2270   45.9140   35.4770 C   0  0  0  0  0  0  0  0  0  0  0  0
   56.0660   46.9370   37.6190 C   0  0  0  0  0  0  0  0  0  0  0  0
   54.8520   45.9920   35.3410 C   0  0  0  0  0  0  0  0  0  0  0  0
   54.7090   47.0150   37.4870 C   0  0  0  0  0  0  0  0  0  0  0  0
   54.1090   46.5470   36.3570 C   0  0  0  0  0  0  0  0  0  0  0  0
   52.7500   46.6360   36.2610 O   0  0  0  0  0  0  0  0  0  0  0  0
   58.4122   43.7556   36.9315 H   0  0  0  0  0  0  0  0  0  0  0  0
   59.9704   45.7561   38.0164 H   0  0  0  0  0  0  0  0  0  0  0  0
   58.7215   47.3417   36.8483 H   0  0  0  0  0  0  0  0  0  0  0  0
   58.7992   45.9012   35.8684 H   0  0  0  0  0  0  0  0  0  0  0  0
   56.8271   45.5127   34.6716 H   0  0  0  0  0  0  0  0  0  0  0  0
   56.4946   47.4564   38.4587 H   0  0  0  0  0  0  0  0  0  0  0  0
   54.3618   45.6324   34.4499 H   0  0  0  0  0  0  0  0  0  0  0  0
   54.1113   47.5286   38.2218 H   0  0  0  0  0  0  0  0  0  0  0  0
   52.3287   47.1543   36.9574 H   0  0  0  0  0  0  0  0  0  0  0  0
   57.6397   45.6704   39.8046 H   0  0  0  0  0  0  0  0  0  0  0  0
   48.1200   41.7806   28.3213 H   0  0  0  0  0  0  0  0  0  0  0  0
   48.5030   42.6110   28.4900 N   0  0  0  0  0  0  0  0  0  0  0  0
   48.3190   43.7780   27.6320 C   0  0  0  0  0  0  0  0  0  0  0  0
   49.7340   43.9550   27.1270 C   0  0  0  0  0  0  0  0  0  0  0  0
   50.6720   43.9610   27.9080 O   0  0  0  0  0  0  0  0  0  0  0  0
   47.8820   44.9780   28.4370 C   0  0  0  0  0  0  0  0  0  0  0  0
   48.9777   42.7308   29.3944 H   0  0  0  0  0  0  0  0  0  0  0  0
   47.6228   43.5839   26.8221 H   0  0  0  0  0  0  0  0  0  0  0  0
   46.7941   44.9741   28.5313 H   0  0  0  0  0  0  0  0  0  0  0  0
   48.3108   44.9278   29.4392 H   0  0  0  0  0  0  0  0  0  0  0  0
   48.2181   45.8962   27.9630 H   0  0  0  0  0  0  0  0  0  0  0  0
   49.8629   44.0171   26.1044 H   0  0  0  0  0  0  0  0  0  0  0  0
   51.6778   45.2595   24.0571 H   0  0  0  0  0  0  0  0  0  0  0  0
   52.5320   45.4920   23.7840 N   0  0  0  0  0  0  0  0  0  0  0  0
   52.7330   46.4510   22.7220 C   0  0  0  0  0  0  0  0  0  0  0  0
   52.8790   45.7020   21.4170 C   0  0  0  0  0  0  0  0  0  0  0  0
   53.4680   44.6340   21.3910 O   0  0  0  0  0  0  0  0  0  0  0  0
   53.3295   45.0682   24.2489 H   0  0  0  0  0  0  0  0  0  0  0  0
   51.9000   47.1498   22.6525 H   0  0  0  0  0  0  0  0  0  0  0  0
   53.6438   47.0226   22.9008 H   0  0  0  0  0  0  0  0  0  0  0  0
   52.4593   46.1264   20.5665 H   0  0  0  0  0  0  0  0  0  0  0  0
   60.1195   40.8650   28.4950 H   0  0  0  0  0  0  0  0  0  0  0  0
   59.8870   41.6870   28.8150 N   0  0  0  0  0  0  0  0  0  0  0  0
   60.8600   42.6950   29.1100 C   0  0  0  0  0  0  0  0  0  0  0  0
   60.5100   43.0130   30.5630 C   0  0  0  0  0  0  0  0  0  0  0  0
   59.3520   42.9020   30.9300 O   0  0  0  0  0  0  0  0  0  0  0  0
   60.6140   43.8220   28.0900 C   0  0  0  0  0  0  0  0  0  0  0  0
   59.9950   45.0570   28.7060 C   0  0  0  0  0  0  0  0  0  0  0  0
   61.8400   44.0500   27.2770 C   0  0  0  0  0  0  0  0  0  0  0  0
   58.9001   41.9152   28.9229 H   0  0  0  0  0  0  0  0  0  0  0  0
   61.8841   42.3274   29.0521 H   0  0  0  0  0  0  0  0  0  0  0  0
   59.8805   43.4823   27.3639 H   0  0  0  0  0  0  0  0  0  0  0  0
   60.6353   45.4765   29.4825 H   0  0  0  0  0  0  0  0  0  0  0  0
   59.8791   45.7987   27.9263 H   0  0  0  0  0  0  0  0  0  0  0  0
   59.0108   44.8231   29.1085 H   0  0  0  0  0  0  0  0  0  0  0  0
   61.6477   44.8272   26.5383 H   0  0  0  0  0  0  0  0  0  0  0  0
   62.6596   44.3715   27.9198 H   0  0  0  0  0  0  0  0  0  0  0  0
   62.1104   43.1301   26.7602 H   0  0  0  0  0  0  0  0  0  0  0  0
   61.2850   43.2284   31.2295 H   0  0  0  0  0  0  0  0  0  0  0  0
   59.3078   51.7594   30.3369 H   0  0  0  0  0  0  0  0  0  0  0  0
   58.9220   52.3020   29.6920 N   0  0  0  0  0  0  0  0  0  0  0  0
   58.6390   51.8100   28.3420 C   0  0  0  0  0  0  0  0  0  0  0  0
   59.8480   51.8450   27.3770 C   0  0  0  0  0  0  0  0  0  0  0  0
   60.8200   52.5920   27.5510 O   0  0  0  0  0  0  0  0  0  0  0  0
   57.3890   52.5110   27.7530 C   0  0  0  0  0  0  0  0  0  0  0  0
   56.0690   52.0030   28.3110 C   0  0  0  0  0  0  0  0  0  0  0  0
   56.0090   50.8370   29.0700 C   0  0  0  0  0  0  0  0  0  0  0  0
   54.8930   52.6840   28.0710 C   0  0  0  0  0  0  0  0  0  0  0  0
   54.8100   50.3660   29.5730 C   0  0  0  0  0  0  0  0  0  0  0  0
   53.6900   52.2120   28.5750 C   0  0  0  0  0  0  0  0  0  0  0  0
   53.6540   51.0550   29.3250 C   0  0  0  0  0  0  0  0  0  0  0  0
   58.7238   53.2622   29.9135 H   0  0  0  0  0  0  0  0  0  0  0  0
   58.4615   50.7402   28.3861 H   0  0  0  0  0  0  0  0  0  0  0  0
   57.4668   53.5859   27.9235 H   0  0  0  0  0  0  0  0  0  0  0  0
   57.3639   52.3486   26.6750 H   0  0  0  0  0  0  0  0  0  0  0  0
   56.8800   50.2771   29.3525 H   0  0  0  0  0  0  0  0  0  0  0  0
   54.9011   53.5846   27.4744 H   0  0  0  0  0  0  0  0  0  0  0  0
   54.7897   49.4853   30.1970 H   0  0  0  0  0  0  0  0  0  0  0  0
   52.7549   52.6544   28.3462 H   0  0  0  0  0  0  0  0  0  0  0  0
   52.7142   50.7062   29.7147 H   0  0  0  0  0  0  0  0  0  0  0  0
   59.7520   51.0260   26.3440 N   0  0  0  0  0  0  0  0  0  0  0  0
   60.7970   50.8440   25.3530 C   0  0  0  0  0  0  0  0  0  0  0  0
   61.1410   52.0470   24.5050 C   0  0  0  0  0  0  0  0  0  0  0  0
   60.2740   52.8390   24.1360 O   0  0  0  0  0  0  0  0  0  0  0  0
   60.4360   49.6620   24.4340 C   0  0  0  0  0  0  0  0  0  0  0  0
   60.1840   48.3260   25.1600 C   0  0  0  0  0  0  0  0  0  0  0  0
   58.9030   48.3200   26.0080 C   0  0  0  0  0  0  0  0  0  0  0  0
   57.8520   48.7910   25.5090 O   0  0  0  0  0  0  0  0  0  0  0  0
   58.9540   47.8570   27.1760 O   0  0  0  0  0  0  0  0  0  0  0  0
   58.9014   50.5078   26.2364 H   0  0  0  0  0  0  0  0  0  0  0  0
   61.6998   50.5693   25.8998 H   0  0  0  0  0  0  0  0  0  0  0  0
   59.5622   49.9231   23.8344 H   0  0  0  0  0  0  0  0  0  0  0  0
   61.2664   49.5061   23.7434 H   0  0  0  0  0  0  0  0  0  0  0  0
   60.0878   47.5424   24.4108 H   0  0  0  0  0  0  0  0  0  0  0  0
   61.0389   48.0942   25.7971 H   0  0  0  0  0  0  0  0  0  0  0  0
   58.1820   47.8490   27.7090 H   0  0  0  0  0  0  0  0  0  0  0  0
   62.1502   52.1586   24.2739 H   0  0  0  0  0  0  0  0  0  0  0  0
   55.3315   41.9798   22.6464 H   0  0  0  0  0  0  0  0  0  0  0  0
   55.4190   42.8060   23.0770 N   0  0  0  0  0  0  0  0  0  0  0  0
   56.2430   43.0010   24.2710 C   0  0  0  0  0  0  0  0  0  0  0  0
   55.4040   43.3440   25.4920 C   0  0  0  0  0  0  0  0  0  0  0  0
   54.4970   44.1780   25.4370 O   0  0  0  0  0  0  0  0  0  0  0  0
   57.3380   44.1160   24.0830 C   0  0  0  0  0  0  0  0  0  0  0  0
   56.7240   45.4360   23.6150 C   0  0  0  0  0  0  0  0  0  0  0  0
   58.1150   44.3270   25.3860 C   0  0  0  0  0  0  0  0  0  0  0  0
   54.9000   43.5905   22.7000 H   0  0  0  0  0  0  0  0  0  0  0  0
   56.7630   42.0794   24.4865 H   0  0  0  0  0  0  0  0  0  0  0  0
   58.0397   43.7848   23.3215 H   0  0  0  0  0  0  0  0  0  0  0  0
   56.0241   45.8273   24.3485 H   0  0  0  0  0  0  0  0  0  0  0  0
   57.5189   46.1666   23.4674 H   0  0  0  0  0  0  0  0  0  0  0  0
   56.2115   45.3000   22.6635 H   0  0  0  0  0  0  0  0  0  0  0  0
   58.4521   43.3585   25.7512 H   0  0  0  0  0  0  0  0  0  0  0  0
   58.9861   44.9517   25.1946 H   0  0  0  0  0  0  0  0  0  0  0  0
   57.5030   44.8103   26.1459 H   0  0  0  0  0  0  0  0  0  0  0  0
   55.7290   42.7120   26.6060 N   0  0  0  0  0  0  0  0  0  0  0  0
   55.0030   42.9690   27.8250 C   0  0  0  0  0  0  0  0  0  0  0  0
   55.9580   42.7070   28.9570 C   0  0  0  0  0  0  0  0  0  0  0  0
   57.0940   42.2980   28.7180 O   0  0  0  0  0  0  0  0  0  0  0  0
   56.4917   42.0394   26.6099 H   0  0  0  0  0  0  0  0  0  0  0  0
   54.7426   44.0262   27.8883 H   0  0  0  0  0  0  0  0  0  0  0  0
   54.0755   42.4266   27.8575 H   0  0  0  0  0  0  0  0  0  0  0  0
   55.4730   42.8410   30.1870 N   0  0  0  0  0  0  0  0  0  0  0  0
   56.3090   42.6990   31.3570 C   0  0  0  0  0  0  0  0  0  0  0  0
   55.8240   41.6330   32.2960 C   0  0  0  0  0  0  0  0  0  0  0  0
   56.0780   41.7200   33.4930 O   0  0  0  0  0  0  0  0  0  0  0  0
   56.3520   44.0440   32.1010 C   0  0  0  0  0  0  0  0  0  0  0  0
   56.7650   45.2450   31.2270 C   0  0  0  0  0  0  0  0  0  0  0  0
   56.5740   46.8660   31.9910 S   0  0  0  0  0  0  0  0  0  0  0  0
   56.9800   47.8610   30.6580 C   0  0  0  0  0  0  0  0  0  0  0  0
   54.5145   43.1489   30.3022 H   0  0  0  0  0  0  0  0  0  0  0  0
   57.2834   42.3707   31.0657 H   0  0  0  0  0  0  0  0  0  0  0  0
   55.4000   44.2406   32.5856 H   0  0  0  0  0  0  0  0  0  0  0  0
   57.1025   43.9826   32.8806 H   0  0  0  0  0  0  0  0  0  0  0  0
   57.8102   45.1202   30.9480 H   0  0  0  0  0  0  0  0  0  0  0  0
   56.1647   45.2527   30.3186 H   0  0  0  0  0  0  0  0  0  0  0  0
   57.1322   48.8750   31.0132 H   0  0  0  0  0  0  0  0  0  0  0  0
   57.9092   47.5118   30.2046 H   0  0  0  0  0  0  0  0  0  0  0  0
   56.1675   47.8404   29.9438 H   0  0  0  0  0  0  0  0  0  0  0  0
   55.3178   40.8211   31.8826 H   0  0  0  0  0  0  0  0  0  0  0  0
   47.2119   46.1798   22.5935 H   0  0  0  0  0  0  0  0  0  0  0  0
   47.6600   46.6440   23.2650 N   0  0  0  0  0  0  0  0  0  0  0  0
   47.2370   47.9490   23.7810 C   0  0  0  0  0  0  0  0  0  0  0  0
   47.8310   49.1790   23.0750 C   0  0  0  0  0  0  0  0  0  0  0  0
   47.1840   50.2150   22.9710 O   0  0  0  0  0  0  0  0  0  0  0  0
   47.4960   48.0460   25.2970 C   0  0  0  0  0  0  0  0  0  0  0  0
   48.8940   47.8800   25.5870 O   0  0  0  0  0  0  0  0  0  0  0  0
   46.7250   46.9660   25.9880 C   0  0  0  0  0  0  0  0  0  0  0  0
   48.4969   46.2003   23.6223 H   0  0  0  0  0  0  0  0  0  0  0  0
   46.1593   48.0425   23.6424 H   0  0  0  0  0  0  0  0  0  0  0  0
   47.1576   49.0181   25.6588 H   0  0  0  0  0  0  0  0  0  0  0  0
   49.1468   47.0173   25.2310 H   0  0  0  0  0  0  0  0  0  0  0  0
   47.1959   45.9975   25.8431 H   0  0  0  0  0  0  0  0  0  0  0  0
   46.6663   47.2018   27.0488 H   0  0  0  0  0  0  0  0  0  0  0  0
   45.7049   46.9256   25.6041 H   0  0  0  0  0  0  0  0  0  0  0  0
   49.0760   49.0860   22.6320 N   0  0  0  0  0  0  0  0  0  0  0  0
   49.7010   50.1870   21.9130 C   0  0  0  0  0  0  0  0  0  0  0  0
   50.5520   49.5730   20.8040 C   0  0  0  0  0  0  0  0  0  0  0  0
   50.6030   48.3520   20.6850 O   0  0  0  0  0  0  0  0  0  0  0  0
   50.5350   51.0710   22.8550 C   0  0  0  0  0  0  0  0  0  0  0  0
   51.8210   50.4160   23.3000 C   0  0  0  0  0  0  0  0  0  0  0  0
   51.8090   49.3620   23.9370 O   0  0  0  0  0  0  0  0  0  0  0  0
   52.9460   51.0520   22.9900 N   0  0  0  0  0  0  0  0  0  0  0  0
   49.5683   48.2079   22.7080 H   0  0  0  0  0  0  0  0  0  0  0  0
   48.9420   50.8009   21.4245 H   0  0  0  0  0  0  0  0  0  0  0  0
   50.8186   51.9488   22.2832 H   0  0  0  0  0  0  0  0  0  0  0  0
   49.9487   51.3846   23.7166 H   0  0  0  0  0  0  0  0  0  0  0  0
   52.9306   51.8674   22.3926 H   0  0  0  0  0  0  0  0  0  0  0  0
   53.7995   50.5966   23.2706 H   0  0  0  0  0  0  0  0  0  0  0  0
   50.9513   50.2238   20.0879 H   0  0  0  0  0  0  0  0  0  0  0  0
   50.2463   54.0132   25.9495 H   0  0  0  0  0  0  0  0  0  0  0  0
   50.4150   53.1800   26.3500 N   0  0  0  0  0  0  0  0  0  0  0  0
   49.4090   52.2790   26.9410 C   0  0  0  0  0  0  0  0  0  0  0  0
   48.0990   52.8450   27.4840 C   0  0  0  0  0  0  0  0  0  0  0  0
   47.2280   52.0530   27.8720 O   0  0  0  0  0  0  0  0  0  0  0  0
   50.0420   51.4230   28.0440 C   0  0  0  0  0  0  0  0  0  0  0  0
   49.9340   52.0290   29.4110 C   0  0  0  0  0  0  0  0  0  0  0  0
   49.3030   51.3930   30.4600 N   0  0  0  0  0  0  0  0  0  0  0  0
   50.3180   53.2420   29.8840 C   0  0  0  0  0  0  0  0  0  0  0  0
   49.2980   52.1880   31.5180 C   0  0  0  0  0  0  0  0  0  0  0  0
   49.9080   53.3170   31.1940 N   0  0  0  0  0  0  0  0  0  0  0  0
   51.3843   52.9365   26.4667 H   0  0  0  0  0  0  0  0  0  0  0  0
   49.0344   51.6714   26.1257 H   0  0  0  0  0  0  0  0  0  0  0  0
   49.5100   50.4717   28.0837 H   0  0  0  0  0  0  0  0  0  0  0  0
   51.0883   51.2170   27.8237 H   0  0  0  0  0  0  0  0  0  0  0  0
   48.9880   50.4325   30.4113 H   0  0  0  0  0  0  0  0  0  0  0  0
   50.6971   54.0561   29.3419 H   0  0  0  0  0  0  0  0  0  0  0  0
   48.8561   51.9593   32.4851 H   0  0  0  0  0  0  0  0  0  0  0  0
   49.9932   54.1527   31.7660 H   0  0  0  0  0  0  0  0  0  0  0  0
   48.0157   53.8935   27.5823 H   0  0  0  0  0  0  0  0  0  0  0  0
   50.0520   42.7910   32.4070 S   0  0  0  0  0  0  0  0  0  0  0  0
   49.2680   42.9030   31.1130 O   0  0  0  0  0  0  0  0  0  0  0  0
   51.4940   42.8830   32.0740 O   0  0  0  0  0  0  0  0  0  0  0  0
   49.6840   43.7730   33.3810 O   0  0  0  0  0  0  0  0  0  0  0  0
   49.6940   41.4580   32.9820 O   0  0  0  0  0  0  0  0  0  0  0  0
   50.0827   48.3336   31.2521 C   0  0  0  0  0  0  0  0  0  0  0  0
   50.7153   48.8878   30.1043 O   0  0  0  0  0  0  0  0  0  0  0  0
   50.5645   46.8812   31.5057 C   0  0  0  0  0  0  0  0  0  0  0  0
   50.5557   46.1925   30.1784 N   0  0  0  0  0  0  0  0  0  0  0  0
   52.0097   46.7513   32.1065 C   0  0  0  0  0  0  0  0  0  0  0  0
   51.9172   46.0715   33.3403 O   0  0  0  0  0  0  0  0  0  0  0  0
   52.8810   46.0008   31.0010 C   0  0  0  0  0  0  0  0  0  0  0  0
   53.3115   44.7117   31.3414 O   0  0  0  0  0  0  0  0  0  0  0  0
   51.9696   45.9155   29.7272 C   0  0  0  0  0  0  0  0  0  0  0  0
   55.7305   47.6005   26.5445 N   0  0  0  0  0  0  0  0  0  0  0  0
   55.8479   46.9622   27.7334 C   0  0  0  0  0  0  0  0  0  0  0  0
   54.8441   46.6390   28.4890 N   0  0  0  0  0  0  0  0  0  0  0  0
   53.6115   46.9710   27.9778 C   0  0  0  0  0  0  0  0  0  0  0  0
   53.4568   47.6726   26.7821 C   0  0  0  0  0  0  0  0  0  0  0  0
   54.5554   48.1061   25.9746 C   0  0  0  0  0  0  0  0  0  0  0  0
   54.5998   48.8350   24.9969 O   0  0  0  0  0  0  0  0  0  0  0  0
   52.1135   47.8588   26.5913 N   0  0  0  0  0  0  0  0  0  0  0  0
   51.4160   47.3085   27.6204 C   0  0  0  0  0  0  0  0  0  0  0  0
   52.3056   46.7402   28.5224 C   0  0  0  0  0  0  0  0  0  0  0  0
   50.0969   46.7981   29.4977 H   0  0  0  0  0  0  0  0  0  0  0  0
   56.5607   47.9152   26.0485 H   0  0  0  0  0  0  0  0  0  0  0  0
   50.0285   45.3127   30.2348 H   0  0  0  0  0  0  0  0  0  0  0  0
   51.7288   48.4415   25.8594 H   0  0  0  0  0  0  0  0  0  0  0  0
   52.5321   44.1648   31.6752 H   0  0  0  0  0  0  0  0  0  0  0  0
   51.8344   46.6867   34.0891 H   0  0  0  0  0  0  0  0  0  0  0  0
   51.6823   48.8698   30.1800 H   0  0  0  0  0  0  0  0  0  0  0  0
   56.8520   46.6600   28.0166 H   0  0  0  0  0  0  0  0  0  0  0  0
   50.3375   47.3815   27.6241 H   0  0  0  0  0  0  0  0  0  0  0  0
   51.9613   44.8585   29.4330 H   0  0  0  0  0  0  0  0  0  0  0  0
   53.7665   46.6135   30.7754 H   0  0  0  0  0  0  0  0  0  0  0  0
   52.4300   47.7649   32.2419 H   0  0  0  0  0  0  0  0  0  0  0  0
   49.8557   46.3620   32.1684 H   0  0  0  0  0  0  0  0  0  0  0  0
   49.0040   48.3387   31.0481 H   0  0  0  0  0  0  0  0  0  0  0  0
   50.2643   48.9471   32.1492 H   0  0  0  0  0  0  0  0  0  0  0  0
   52.2800   42.3240   29.4620 O   0  0  0  0  0  0  0  0  0  0  0  0
   51.9723   42.3534   30.3923 H   0  0  0  0  0  0  0  0  0  0  0  0
   51.6320   42.8825   29.0062 H   0  0  0  0  0  0  0  0  0  0  0  0
   50.3350   49.8860   25.8590 O   0  0  0  0  0  0  0  0  0  0  0  0
   50.8053   49.7947   25.0098 H   0  0  0  0  0  0  0  0  0  0  0  0
   49.6787   49.1584   25.8131 H   0  0  0  0  0  0  0  0  0  0  0  0
  1  2  1  0  0  0  0
  2  3  1  0  0  0  0
  3  4  1  0  0  0  0
  4  5  2  0  0  0  0
  3  6  1  0  0  0  0
  6  7  1  0  0  0  0
  2  8  1  0  0  0  0
  3  9  1  0  0  0  0
  6 10  1  0  0  0  0
  6 11  1  0  0  0  0
  7 12  1  0  0  0  0
  4 13  1  0  0  0  0
 14 15  1  0  0  0  0
 15 16  1  0  0  0  0
 16 17  1  0  0  0  0
 17 18  2  0  0  0  0
 16 19  1  0  0  0  0
 19 20  1  0  0  0  0
 20 21  4  0  0  0  0
 20 22  4  0  0  0  0
 21 23  4  0  0  0  0
 22 24  4  0  0  0  0
 23 25  4  0  0  0  0
 24 25  4  0  0  0  0
 25 26  1  0  0  0  0
 15 27  1  0  0  0  0
 16 28  1  0  0  0  0
 19 29  1  0  0  0  0
 19 30  1  0  0  0  0
 21 31  1  0  0  0  0
 22 32  1  0  0  0  0
 23 33  1  0  0  0  0
 24 34  1  0  0  0  0
 26 35  1  0  0  0  0
 17 36  1  0  0  0  0
 37 38  1  0  0  0  0
 38 39  1  0  0  0  0
 39 40  1  0  0  0  0
 40 41  2  0  0  0  0
 39 42  1  0  0  0  0
 38 43  1  0  0  0  0
 39 44  1  0  0  0  0
 42 45  1  0  0  0  0
 42 46  1  0  0  0  0
 42 47  1  0  0  0  0
 40 48  1  0  0  0  0
 49 50  1  0  0  0  0
 50 51  1  0  0  0  0
 51 52  1  0  0  0  0
 52 53  2  0  0  0  0
 50 54  1  0  0  0  0
 51 55  1  0  0  0  0
 51 56  1  0  0  0  0
 52 57  1  0  0  0  0
 58 59  1  0  0  0  0
 59 60  1  0  0  0  0
 60 61  1  0  0  0  0
 61 62  2  0  0  0  0
 60 63  1  0  0  0  0
 63 64  1  0  0  0  0
 63 65  1  0  0  0  0
 59 66  1  0  0  0  0
 60 67  1  0  0  0  0
 63 68  1  0  0  0  0
 64 69  1  0  0  0  0
 64 70  1  0  0  0  0
 64 71  1  0  0  0  0
 65 72  1  0  0  0  0
 65 73  1  0  0  0  0
 65 74  1  0  0  0  0
 61 75  1  0  0  0  0
 76 77  1  0  0  0  0
 77 78  1  0  0  0  0
 78 79  1  0  0  0  0
 79 80  2  0  0  0  0
 78 81  1  0  0  0  0
 81 82  1  0  0  0  0
 82 83  4  0  0  0  0
 82 84  4  0  0  0  0
 83 85  4  0  0  0  0
 84 86  4  0  0  0  0
 85 87  4  0  0  0  0
 86 87  4  0  0  0  0
 77 88  1  0  0  0  0
 78 89  1  0  0  0  0
 81 90  1  0  0  0  0
 81 91  1  0  0  0  0
 83 92  1  0  0  0  0
 84 93  1  0  0  0  0
 85 94  1  0  0  0  0
 86 95  1  0  0  0  0
 87 96  1  0  0  0  0
 79 97  4  0  0  0  0
 97 98  1  0  0  0  0
 98 99  1  0  0  0  0
 99100  2  0  0  0  0
 98101  1  0  0  0  0
101102  1  0  0  0  0
102103  1  0  0  0  0
103104  2  0  0  0  0
103105  4  0  0  0  0
 97106  1  0  0  0  0
 98107  1  0  0  0  0
101108  1  0  0  0  0
101109  1  0  0  0  0
102110  1  0  0  0  0
102111  1  0  0  0  0
105112  1  0  0  0  0
 99113  1  0  0  0  0
114115  1  0  0  0  0
115116  1  0  0  0  0
116117  1  0  0  0  0
117118  2  0  0  0  0
116119  1  0  0  0  0
119120  1  0  0  0  0
119121  1  0  0  0  0
115122  1  0  0  0  0
116123  1  0  0  0  0
119124  1  0  0  0  0
120125  1  0  0  0  0
120126  1  0  0  0  0
120127  1  0  0  0  0
121128  1  0  0  0  0
121129  1  0  0  0  0
121130  1  0  0  0  0
117131  4  0  0  0  0
131132  1  0  0  0  0
132133  1  0  0  0  0
133134  2  0  0  0  0
131135  1  0  0  0  0
132136  1  0  0  0  0
132137  1  0  0  0  0
133138  4  0  0  0  0
138139  1  0  0  0  0
139140  1  0  0  0  0
140141  2  0  0  0  0
139142  1  0  0  0  0
142143  1  0  0  0  0
143144  1  0  0  0  0
144145  1  0  0  0  0
138146  1  0  0  0  0
139147  1  0  0  0  0
142148  1  0  0  0  0
142149  1  0  0  0  0
143150  1  0  0  0  0
143151  1  0  0  0  0
145152  1  0  0  0  0
145153  1  0  0  0  0
145154  1  0  0  0  0
140155  1  0  0  0  0
156157  1  0  0  0  0
157158  1  0  0  0  0
158159  1  0  0  0  0
159160  2  0  0  0  0
158161  1  0  0  0  0
161162  1  0  0  0  0
161163  1  0  0  0  0
157164  1  0  0  0  0
158165  1  0  0  0  0
161166  1  0  0  0  0
162167  1  0  0  0  0
163168  1  0  0  0  0
163169  1  0  0  0  0
163170  1  0  0  0  0
159171  4  0  0  0  0
171172  1  0  0  0  0
172173  1  0  0  0  0
173174  2  0  0  0  0
172175  1  0  0  0  0
175176  1  0  0  0  0
176177  2  0  0  0  0
176178  4  0  0  0  0
171179  1  0  0  0  0
172180  1  0  0  0  0
175181  1  0  0  0  0
175182  1  0  0  0  0
178183  1  0  0  0  0
178184  1  0  0  0  0
173185  1  0  0  0  0
186187  1  0  0  0  0
187188  1  0  0  0  0
188189  1  0  0  0  0
189190  2  0  0  0  0
188191  1  0  0  0  0
191192  1  0  0  0  0
192193  1  0  0  0  0
192194  2  0  0  0  0
193195  4  0  0  0  0
194196  1  0  0  0  0
195196  4  0  0  0  0
187197  1  0  0  0  0
188198  1  0  0  0  0
191199  1  0  0  0  0
191200  1  0  0  0  0
193201  1  0  0  0  0
194202  1  0  0  0  0
195203  1  0  0  0  0
196204  1  0  0  0  0
189205  1  0  0  0  0
206207  1  0  0  0  0
206208  1  0  0  0  0
206209  2  0  0  0  0
206210  1  0  0  0  0
211212  1  0  0  0  0
211213  1  0  0  0  0
213214  1  0  0  0  0
213215  1  0  0  0  0
215216  1  0  0  0  0
215217  1  0  0  0  0
217218  1  0  0  0  0
214219  1  0  0  0  0
217219  1  0  0  0  0
220221  4  0  0  0  0
221222  2  0  0  0  0
222223  1  0  0  0  0
223224  4  0  0  0  0
220225  1  0  0  0  0
224225  1  0  0  0  0
225226  2  0  0  0  0
224227  4  0  0  0  0
227228  4  0  0  0  0
219229  1  0  0  0  0
223229  4  0  0  0  0
228229  4  0  0  0  0
214230  1  0  0  0  0
220231  1  0  0  0  0
214232  1  0  0  0  0
227233  1  0  0  0  0
218234  1  0  0  0  0
216235  1  0  0  0  0
212236  1  0  0  0  0
221237  1  0  0  0  0
228238  1  0  0  0  0
219239  1  0  0  0  0
217240  1  0  0  0  0
215241  1  0  0  0  0
213242  1  0  0  0  0
211243  1  0  0  0  0
211244  1  0  0  0  0
245246  1  0  0  0  0
245247  1  0  0  0  0
248249  1  0  0  0  0
248250  1  0  0  0  0
M  END
