 xtb: 6.6.0 (2ccbbd7)
          12242305323D

 48 53  0     0  0            999 V2000
   42.8734   37.9250   10.1354 C   0  0  0  0  0  0  0  0  0  0  0  0
   42.9807   38.3266   11.4819 C   0  0  0  0  0  0  0  0  0  0  0  0
   43.8136   37.6870   12.3830 C   0  0  0  0  0  0  0  0  0  0  0  0
   44.5704   36.5854   11.9209 C   0  0  0  0  0  0  0  0  0  0  0  0
   45.5283   35.7217   12.5335 C   0  0  0  0  0  0  0  0  0  0  0  0
   45.9245   34.8436   11.5609 C   0  0  0  0  0  0  0  0  0  0  0  0
   45.2771   35.0927   10.3807 N   0  0  0  0  0  0  0  0  0  0  0  0
   44.4247   36.1791   10.5725 C   0  0  0  0  0  0  0  0  0  0  0  0
   43.5977   36.8326    9.6506 C   0  0  0  0  0  0  0  0  0  0  0  0
   47.0289   33.8450   11.7368 C   0  0  0  0  0  0  0  0  0  0  0  0
   47.3782   33.6521   13.1606 N   0  0  0  0  0  0  0  0  0  0  0  0
   48.1643   32.5510   13.3897 C   0  0  0  0  0  0  0  0  0  0  0  0
   48.5581   31.8665   12.4704 O   0  0  0  0  0  0  0  0  0  0  0  0
   48.5243   32.2174   14.8137 C   0  0  0  0  0  0  0  0  0  0  0  0
   48.1652   33.2156   15.7942 N   0  0  0  0  0  0  0  0  0  0  0  0
   47.2306   34.1683   15.5881 C   0  0  0  0  0  0  0  0  0  0  0  0
   46.8677   34.9324   16.4709 O   0  0  0  0  0  0  0  0  0  0  0  0
   46.5596   34.2398   14.2293 C   0  0  0  0  0  0  0  0  0  0  0  0
   46.1263   35.6764   13.9017 C   0  0  0  0  0  0  0  0  0  0  0  0
   48.7602   33.0847   17.1150 C   0  0  0  0  0  0  0  0  0  0  0  0
   48.2474   34.2808   10.9174 C   0  0  0  0  0  0  0  0  0  0  0  0
   48.7159   33.4554    9.8919 C   0  0  0  0  0  0  0  0  0  0  0  0
   49.8094   33.8355    9.0947 C   0  0  0  0  0  0  0  0  0  0  0  0
   50.3906   35.0380    9.3962 C   0  0  0  0  0  0  0  0  0  0  0  0
   51.4765   35.6558    8.7910 O   0  0  0  0  0  0  0  0  0  0  0  0
   51.8682   36.6745    9.6826 C   0  0  0  0  0  0  0  0  0  0  0  0
   50.6786   37.0149   10.4568 O   0  0  0  0  0  0  0  0  0  0  0  0
   49.9329   35.8689   10.4022 C   0  0  0  0  0  0  0  0  0  0  0  0
   48.8510   35.5173   11.1825 C   0  0  0  0  0  0  0  0  0  0  0  0
   52.6520   36.3347   10.3618 H   0  0  0  0  0  0  0  0  0  0  0  0
   52.1669   37.5509    9.1146 H   0  0  0  0  0  0  0  0  0  0  0  0
   48.4730   32.1304   17.5657 H   0  0  0  0  0  0  0  0  0  0  0  0
   49.8495   33.1352   17.0570 H   0  0  0  0  0  0  0  0  0  0  0  0
   48.3823   33.8924   17.7339 H   0  0  0  0  0  0  0  0  0  0  0  0
   48.0659   31.2503   15.0375 H   0  0  0  0  0  0  0  0  0  0  0  0
   49.6025   32.0581   14.8314 H   0  0  0  0  0  0  0  0  0  0  0  0
   46.9920   36.3417   13.9738 H   0  0  0  0  0  0  0  0  0  0  0  0
   45.4268   36.0031   14.6678 H   0  0  0  0  0  0  0  0  0  0  0  0
   45.3938   34.5522    9.5281 H   0  0  0  0  0  0  0  0  0  0  0  0
   43.5374   36.4950    8.6245 H   0  0  0  0  0  0  0  0  0  0  0  0
   42.2222   38.4823    9.4729 H   0  0  0  0  0  0  0  0  0  0  0  0
   48.2603   32.4886    9.7443 H   0  0  0  0  0  0  0  0  0  0  0  0
   50.1670   33.2162    8.2855 H   0  0  0  0  0  0  0  0  0  0  0  0
   48.4639   36.1551   11.9659 H   0  0  0  0  0  0  0  0  0  0  0  0
   42.3878   39.1649   11.8243 H   0  0  0  0  0  0  0  0  0  0  0  0
   46.6964   32.8770   11.3448 H   0  0  0  0  0  0  0  0  0  0  0  0
   45.6431   33.6451   14.3223 H   0  0  0  0  0  0  0  0  0  0  0  0
   43.8860   38.0168   13.4120 H   0  0  0  0  0  0  0  0  0  0  0  0
  1  2  4  0  0  0  0
  2  3  2  0  0  0  0
  3  4  4  0  0  0  0
  4  5  4  0  0  0  0
  5  6  2  0  0  0  0
  6  7  1  0  0  0  0
  4  8  4  0  0  0  0
  7  8  1  0  0  0  0
  1  9  4  0  0  0  0
  8  9  4  0  0  0  0
  6 10  1  0  0  0  0
 10 11  1  0  0  0  0
 11 12  4  0  0  0  0
 12 13  2  0  0  0  0
 12 14  1  0  0  0  0
 14 15  1  0  0  0  0
 15 16  4  0  0  0  0
 16 17  2  0  0  0  0
 11 18  1  0  0  0  0
 16 18  1  0  0  0  0
  5 19  1  0  0  0  0
 18 19  1  0  0  0  0
 15 20  1  0  0  0  0
 10 21  1  0  0  0  0
 21 22  4  0  0  0  0
 22 23  4  0  0  0  0
 23 24  4  0  0  0  0
 24 25  1  0  0  0  0
 25 26  1  0  0  0  0
 26 27  1  0  0  0  0
 24 28  4  0  0  0  0
 27 28  1  0  0  0  0
 21 29  4  0  0  0  0
 28 29  4  0  0  0  0
 26 30  1  0  0  0  0
 26 31  1  0  0  0  0
 20 32  1  0  0  0  0
 20 33  1  0  0  0  0
 20 34  1  0  0  0  0
 14 35  1  0  0  0  0
 14 36  1  0  0  0  0
 19 37  1  0  0  0  0
 19 38  1  0  0  0  0
  7 39  1  0  0  0  0
  9 40  1  0  0  0  0
  1 41  1  0  0  0  0
 22 42  1  0  0  0  0
 23 43  1  0  0  0  0
 29 44  1  0  0  0  0
  2 45  1  0  0  0  0
 10 46  1  0  0  0  0
 18 47  1  0  0  0  0
  3 48  1  0  0  0  0
M  END
