 xtb: 6.6.0 (2ccbbd7)
          01022419093D

 36 38  0     0  0            999 V2000
    5.7515   11.6026   23.5465 C   0  0  0  0  0  0  0  0  0  0  0  0
    1.0544   11.1172   24.0461 N   0  0  0  0  0  0  0  0  0  0  0  0
    4.2405   14.9716   25.4010 O   0  0  0  0  0  0  0  0  0  0  0  0
    6.6077   12.6342   23.8402 C   0  0  0  0  0  0  0  0  0  0  0  0
    2.2305    9.9945   25.5716 N   0  0  0  0  0  0  0  0  0  0  0  0
    6.1581   10.4527   22.9804 O   0  0  0  0  0  0  0  0  0  0  0  0
    6.1580   13.7720   24.4822 C   0  0  0  0  0  0  0  0  0  0  0  0
   -1.6265   10.6633   26.5223 N   0  0  0  0  0  0  0  0  0  0  0  0
    4.8086   13.8759   24.8166 C   0  0  0  0  0  0  0  0  0  0  0  0
    0.4837    9.7680   27.2260 N   0  0  0  0  0  0  0  0  0  0  0  0
    3.9268   12.8431   24.4843 C   0  0  0  0  0  0  0  0  0  0  0  0
   -2.0332   11.5191   24.4115 N   0  0  0  0  0  0  0  0  0  0  0  0
    4.3671   11.7093   23.8469 C   0  0  0  0  0  0  0  0  0  0  0  0
    5.0100   16.0198   25.9363 C   0  0  0  0  0  0  0  0  0  0  0  0
    3.4469   10.5636   23.5073 C   0  0  0  0  0  0  0  0  0  0  0  0
    2.2546   10.5303   24.3823 C   0  0  0  0  0  0  0  0  0  0  0  0
    0.2019   10.8616   25.0832 C   0  0  0  0  0  0  0  0  0  0  0  0
    0.9666   10.1795   26.0420 C   0  0  0  0  0  0  0  0  0  0  0  0
   -1.1921   10.9888   25.3159 C   0  0  0  0  0  0  0  0  0  0  0  0
   -0.7890   10.0657   27.3638 C   0  0  0  0  0  0  0  0  0  0  0  0
    7.5355   10.1393   22.9566 C   0  0  0  0  0  0  0  0  0  0  0  0
   -1.3111    9.7429   28.5572 F   0  0  0  0  0  0  0  0  0  0  0  0
    0.8204   11.4491   23.1135 H   0  0  0  0  0  0  0  0  0  0  0  0
    7.6551   12.5586   23.5946 H   0  0  0  0  0  0  0  0  0  0  0  0
    6.8425   14.5753   24.7038 H   0  0  0  0  0  0  0  0  0  0  0  0
    2.8877   12.9697   24.7366 H   0  0  0  0  0  0  0  0  0  0  0  0
   -3.0415   11.4990   24.5773 H   0  0  0  0  0  0  0  0  0  0  0  0
   -1.7752   11.5914   23.4380 H   0  0  0  0  0  0  0  0  0  0  0  0
    5.5065   16.5667   25.1230 H   0  0  0  0  0  0  0  0  0  0  0  0
    4.3046   16.6781   26.4335 H   0  0  0  0  0  0  0  0  0  0  0  0
    5.7654   15.6602   26.6386 H   0  0  0  0  0  0  0  0  0  0  0  0
    3.9952    9.6259   23.6069 H   0  0  0  0  0  0  0  0  0  0  0  0
    3.1423   10.6455   22.4588 H   0  0  0  0  0  0  0  0  0  0  0  0
    7.9833   10.1918   23.9517 H   0  0  0  0  0  0  0  0  0  0  0  0
    7.6015    9.1182   22.5813 H   0  0  0  0  0  0  0  0  0  0  0  0
    8.0806   10.7979   22.2729 H   0  0  0  0  0  0  0  0  0  0  0  0
  1  4  4  0  0  0  0
  1  6  1  0  0  0  0
  4  7  4  0  0  0  0
  3  9  1  0  0  0  0
  7  9  4  0  0  0  0
  9 11  4  0  0  0  0
  1 13  4  0  0  0  0
 11 13  4  0  0  0  0
  3 14  1  0  0  0  0
 13 15  1  0  0  0  0
  2 16  4  0  0  0  0
  5 16  2  0  0  0  0
 15 16  1  0  0  0  0
  2 17  1  0  0  0  0
  5 18  4  0  0  0  0
 10 18  4  0  0  0  0
 17 18  4  0  0  0  0
  8 19  4  0  0  0  0
 12 19  4  0  0  0  0
 17 19  4  0  0  0  0
  8 20  4  0  0  0  0
 10 20  4  0  0  0  0
  6 21  1  0  0  0  0
 20 22  1  0  0  0  0
  2 23  1  0  0  0  0
  4 24  1  0  0  0  0
  7 25  1  0  0  0  0
 11 26  1  0  0  0  0
 12 27  1  0  0  0  0
 12 28  1  0  0  0  0
 14 29  1  0  0  0  0
 14 30  1  0  0  0  0
 14 31  1  0  0  0  0
 15 32  1  0  0  0  0
 15 33  1  0  0  0  0
 21 34  1  0  0  0  0
 21 35  1  0  0  0  0
 21 36  1  0  0  0  0
M  END
