 xtb: 6.6.0 (2ccbbd7)
          01022419203D

 36 38  0     0  0            999 V2000
    5.7364   11.6566   23.5858 C   0  0  0  0  0  0  0  0  0  0  0  0
    1.0542   11.1255   24.0714 N   0  0  0  0  0  0  0  0  0  0  0  0
    4.2514   15.0419   25.4034 O   0  0  0  0  0  0  0  0  0  0  0  0
    6.6126   12.6791   23.8807 C   0  0  0  0  0  0  0  0  0  0  0  0
    2.2267   10.0008   25.6130 N   0  0  0  0  0  0  0  0  0  0  0  0
    6.1213   10.5133   23.0073 O   0  0  0  0  0  0  0  0  0  0  0  0
    6.1583   13.8234   24.5299 C   0  0  0  0  0  0  0  0  0  0  0  0
   -1.6659   10.6534   26.5343 N   0  0  0  0  0  0  0  0  0  0  0  0
    4.8129   13.9268   24.8580 C   0  0  0  0  0  0  0  0  0  0  0  0
    0.4568    9.8000   27.2561 N   0  0  0  0  0  0  0  0  0  0  0  0
    3.9219   12.8960   24.5307 C   0  0  0  0  0  0  0  0  0  0  0  0
   -2.0235   11.4864   24.4205 N   0  0  0  0  0  0  0  0  0  0  0  0
    4.3510   11.7529   23.8914 C   0  0  0  0  0  0  0  0  0  0  0  0
    5.0321   16.0273   26.0319 C   0  0  0  0  0  0  0  0  0  0  0  0
    3.4479   10.5799   23.5539 C   0  0  0  0  0  0  0  0  0  0  0  0
    2.2360   10.5294   24.4123 C   0  0  0  0  0  0  0  0  0  0  0  0
    0.1975   10.8417   25.1154 C   0  0  0  0  0  0  0  0  0  0  0  0
    0.9471   10.1827   26.0614 C   0  0  0  0  0  0  0  0  0  0  0  0
   -1.2010   10.9851   25.3338 C   0  0  0  0  0  0  0  0  0  0  0  0
   -0.8228   10.0736   27.3828 C   0  0  0  0  0  0  0  0  0  0  0  0
    7.4910   10.1614   22.9835 C   0  0  0  0  0  0  0  0  0  0  0  0
   -1.3314    9.7424   28.5684 F   0  0  0  0  0  0  0  0  0  0  0  0
    0.8161   11.3892   23.1190 H   0  0  0  0  0  0  0  0  0  0  0  0
    7.6644   12.5804   23.6398 H   0  0  0  0  0  0  0  0  0  0  0  0
    6.8493   14.6253   24.7788 H   0  0  0  0  0  0  0  0  0  0  0  0
    2.8838   13.0267   24.8011 H   0  0  0  0  0  0  0  0  0  0  0  0
   -3.0211   11.5655   24.6313 H   0  0  0  0  0  0  0  0  0  0  0  0
   -1.7147   11.6648   23.4753 H   0  0  0  0  0  0  0  0  0  0  0  0
    5.5729   16.6269   25.2861 H   0  0  0  0  0  0  0  0  0  0  0  0
    4.3352   16.6750   26.5632 H   0  0  0  0  0  0  0  0  0  0  0  0
    5.7485   15.5892   26.7356 H   0  0  0  0  0  0  0  0  0  0  0  0
    3.9793    9.6339   23.6959 H   0  0  0  0  0  0  0  0  0  0  0  0
    3.1432   10.6211   22.5000 H   0  0  0  0  0  0  0  0  0  0  0  0
    7.9427   10.2174   23.9797 H   0  0  0  0  0  0  0  0  0  0  0  0
    7.5274    9.1217   22.6498 H   0  0  0  0  0  0  0  0  0  0  0  0
    8.0403   10.8033   22.2831 H   0  0  0  0  0  0  0  0  0  0  0  0
  1  4  4  0  0  0  0
  1  6  1  0  0  0  0
  4  7  4  0  0  0  0
  3  9  1  0  0  0  0
  7  9  4  0  0  0  0
  9 11  4  0  0  0  0
  1 13  4  0  0  0  0
 11 13  4  0  0  0  0
  3 14  1  0  0  0  0
 13 15  1  0  0  0  0
  2 16  4  0  0  0  0
  5 16  2  0  0  0  0
 15 16  1  0  0  0  0
  2 17  1  0  0  0  0
  5 18  4  0  0  0  0
 10 18  4  0  0  0  0
 17 18  4  0  0  0  0
  8 19  4  0  0  0  0
 12 19  4  0  0  0  0
 17 19  4  0  0  0  0
  8 20  4  0  0  0  0
 10 20  4  0  0  0  0
  6 21  1  0  0  0  0
 20 22  1  0  0  0  0
  2 23  1  0  0  0  0
  4 24  1  0  0  0  0
  7 25  1  0  0  0  0
 11 26  1  0  0  0  0
 12 27  1  0  0  0  0
 12 28  1  0  0  0  0
 14 29  1  0  0  0  0
 14 30  1  0  0  0  0
 14 31  1  0  0  0  0
 15 32  1  0  0  0  0
 15 33  1  0  0  0  0
 21 34  1  0  0  0  0
 21 35  1  0  0  0  0
 21 36  1  0  0  0  0
M  END
