 xtb: 6.5.1 (b24c23e)
          11052214443D

 42 45  0     0  0            999 V2000
    8.7680   -5.6794   -3.6501 C   0  0  0  0  0  0  0  0  0  0  0  0
    8.4644   -5.3823   -2.6571 H   0  0  0  0  0  0  0  0  0  0  0  0
    8.0107   -5.2563   -4.7280 C   0  0  0  0  0  0  0  0  0  0  0  0
    7.1314   -4.6437   -4.5923 H   0  0  0  0  0  0  0  0  0  0  0  0
    8.4600   -5.5610   -6.0067 C   0  0  0  0  0  0  0  0  0  0  0  0
    7.4153   -4.9304   -7.2957 Cl  0  0  0  0  0  0  0  0  0  0  0  0
    9.6309   -6.2910   -6.2651 C   0  0  0  0  0  0  0  0  0  0  0  0
    9.9255   -6.5102   -7.2829 H   0  0  0  0  0  0  0  0  0  0  0  0
   10.3653   -6.7399   -5.1508 C   0  0  0  0  0  0  0  0  0  0  0  0
   11.2606   -7.3374   -5.2680 H   0  0  0  0  0  0  0  0  0  0  0  0
    9.9234   -6.4421   -3.8423 C   0  0  0  0  0  0  0  0  0  0  0  0
   10.6661   -6.9208   -2.6521 C   0  0  0  0  0  0  0  0  0  0  0  0
   11.9267   -7.1003   -2.7928 N   0  0  0  0  0  0  0  0  0  0  0  0
    9.8803   -7.0330   -1.3839 C   0  0  0  0  0  0  0  0  0  0  0  0
    8.5628   -7.5231   -1.4655 C   0  0  0  0  0  0  0  0  0  0  0  0
    8.2261   -7.9553   -2.4005 H   0  0  0  0  0  0  0  0  0  0  0  0
    7.6881   -7.4545   -0.3817 C   0  0  0  0  0  0  0  0  0  0  0  0
    6.7042   -7.8964   -0.4572 H   0  0  0  0  0  0  0  0  0  0  0  0
    8.1145   -6.8737    0.8334 C   0  0  0  0  0  0  0  0  0  0  0  0
    7.4454   -6.8590    1.6820 H   0  0  0  0  0  0  0  0  0  0  0  0
    9.4141   -6.3801    0.9232 C   0  0  0  0  0  0  0  0  0  0  0  0
    9.7704   -5.9386    1.8459 H   0  0  0  0  0  0  0  0  0  0  0  0
   10.3203   -6.4274   -0.1685 C   0  0  0  0  0  0  0  0  0  0  0  0
   11.6835   -5.8832   -0.0620 C   0  0  0  0  0  0  0  0  0  0  0  0
   12.2560   -4.7482    0.5925 C   0  0  0  0  0  0  0  0  0  0  0  0
   11.6243   -3.6604    1.4150 C   0  0  0  0  0  0  0  0  0  0  0  0
   11.3312   -4.0253    2.4026 H   0  0  0  0  0  0  0  0  0  0  0  0
   10.7536   -3.2324    0.9220 H   0  0  0  0  0  0  0  0  0  0  0  0
   12.3715   -2.8777    1.5701 H   0  0  0  0  0  0  0  0  0  0  0  0
   13.5661   -4.6708    0.3877 N   0  0  0  0  0  0  0  0  0  0  0  0
   13.8860   -5.7505   -0.4976 O   0  0  0  0  0  0  0  0  0  0  0  0
   12.7342   -6.4225   -0.7420 C   0  0  0  0  0  0  0  0  0  0  0  0
   12.7041   -7.5890   -1.6651 C   0  0  0  0  0  0  0  0  0  0  0  0
   12.1660   -8.4134   -1.1739 H   0  0  0  0  0  0  0  0  0  0  0  0
   14.0653   -8.0548   -2.1149 C   0  0  0  0  0  0  0  0  0  0  0  0
   14.6260   -8.4596   -1.2709 H   0  0  0  0  0  0  0  0  0  0  0  0
   14.6244   -7.1966   -2.4898 H   0  0  0  0  0  0  0  0  0  0  0  0
   13.9243   -9.1002   -3.2249 C   0  0  0  0  0  0  0  0  0  0  0  0
   12.8904   -9.7826   -3.3918 O   0  0  0  0  0  0  0  0  0  0  0  0
   15.0292   -9.2235   -3.9976 N   0  0  0  0  0  0  0  0  0  0  0  0
   15.0188   -9.8517   -4.7838 H   0  0  0  0  0  0  0  0  0  0  0  0
   15.8013   -8.5735   -3.9271 H   0  0  0  0  0  0  0  0  0  0  0  0
  1  2  1  0  0  0  0
  1  3  4  0  0  0  0
  3  4  1  0  0  0  0
  3  5  4  0  0  0  0
  5  6  1  0  0  0  0
  5  7  4  0  0  0  0
  7  8  1  0  0  0  0
  7  9  4  0  0  0  0
  9 10  1  0  0  0  0
  1 11  4  0  0  0  0
  9 11  4  0  0  0  0
 11 12  1  0  0  0  0
 12 13  2  0  0  0  0
 12 14  1  0  0  0  0
 14 15  4  0  0  0  0
 15 16  1  0  0  0  0
 15 17  4  0  0  0  0
 17 18  1  0  0  0  0
 17 19  4  0  0  0  0
 19 20  1  0  0  0  0
 19 21  4  0  0  0  0
 21 22  1  0  0  0  0
 14 23  4  0  0  0  0
 21 23  4  0  0  0  0
 23 24  1  0  0  0  0
 24 25  4  0  0  0  0
 25 26  1  0  0  0  0
 26 27  1  0  0  0  0
 26 28  1  0  0  0  0
 26 29  1  0  0  0  0
 25 30  2  0  0  0  0
 30 31  1  0  0  0  0
 24 32  4  0  0  0  0
 31 32  1  0  0  0  0
 13 33  1  0  0  0  0
 32 33  1  0  0  0  0
 33 34  1  0  0  0  0
 33 35  1  0  0  0  0
 35 36  1  0  0  0  0
 35 37  1  0  0  0  0
 35 38  1  0  0  0  0
 38 39  2  0  0  0  0
 38 40  4  0  0  0  0
 40 41  1  0  0  0  0
 40 42  1  0  0  0  0
M  END
