 xtb: 6.6.0 (2ccbbd7)
          12272302463D

 58 60  0     0  0            999 V2000
   10.3564  -30.0419  -30.4078 C   0  0  0  0  0  0  0  0  0  0  0  0
   11.1477  -29.5183  -29.3268 C   0  0  0  0  0  0  0  0  0  0  0  0
   11.5862  -28.1631  -29.2737 C   0  0  0  0  0  0  0  0  0  0  0  0
   12.3348  -27.6643  -28.2222 C   0  0  0  0  0  0  0  0  0  0  0  0
   12.7260  -28.4851  -27.1187 C   0  0  0  0  0  0  0  0  0  0  0  0
   12.3409  -29.8624  -27.1931 C   0  0  0  0  0  0  0  0  0  0  0  0
   11.5706  -30.3411  -28.2387 C   0  0  0  0  0  0  0  0  0  0  0  0
   10.4308  -31.4621  -30.6888 C   0  0  0  0  0  0  0  0  0  0  0  0
   11.6893  -32.1098  -30.6172 C   0  0  0  0  0  0  0  0  0  0  0  0
   11.8507  -33.4212  -31.0119 C   0  0  0  0  0  0  0  0  0  0  0  0
   10.7432  -34.2183  -31.4332 C   0  0  0  0  0  0  0  0  0  0  0  0
    9.4604  -33.5899  -31.4197 C   0  0  0  0  0  0  0  0  0  0  0  0
    9.3259  -32.2471  -31.1113 C   0  0  0  0  0  0  0  0  0  0  0  0
    9.5595  -29.2098  -31.2783 C   0  0  0  0  0  0  0  0  0  0  0  0
    9.3482  -29.5948  -32.6418 C   0  0  0  0  0  0  0  0  0  0  0  0
    8.5742  -28.8506  -33.5147 C   0  0  0  0  0  0  0  0  0  0  0  0
    7.8989  -27.6559  -33.0703 C   0  0  0  0  0  0  0  0  0  0  0  0
    8.1467  -27.2332  -31.7224 C   0  0  0  0  0  0  0  0  0  0  0  0
    8.9396  -27.9849  -30.8736 C   0  0  0  0  0  0  0  0  0  0  0  0
   13.8206  -28.8610  -24.9662 C   0  0  0  0  0  0  0  0  0  0  0  0
   13.5191  -26.5262  -25.9131 C   0  0  0  0  0  0  0  0  0  0  0  0
    9.8543  -36.2522  -32.4480 C   0  0  0  0  0  0  0  0  0  0  0  0
   12.1652  -36.2129  -31.5554 C   0  0  0  0  0  0  0  0  0  0  0  0
    6.5858  -25.6530  -33.4972 C   0  0  0  0  0  0  0  0  0  0  0  0
    6.8414  -27.4268  -35.2653 C   0  0  0  0  0  0  0  0  0  0  0  0
   13.3913  -27.9760  -26.0557 N   0  0  0  0  0  0  0  0  0  0  0  0
   10.9455  -35.4794  -31.8651 N   0  0  0  0  0  0  0  0  0  0  0  0
    7.0719  -26.9685  -33.8853 N   0  0  0  0  0  0  0  0  0  0  0  0
    7.7114  -27.2677  -35.8998 H   0  0  0  0  0  0  0  0  0  0  0  0
    6.5895  -28.4877  -35.2904 H   0  0  0  0  0  0  0  0  0  0  0  0
    5.9942  -26.8792  -35.6667 H   0  0  0  0  0  0  0  0  0  0  0  0
    5.7718  -25.7151  -32.7709 H   0  0  0  0  0  0  0  0  0  0  0  0
    7.3835  -25.0518  -33.0616 H   0  0  0  0  0  0  0  0  0  0  0  0
    6.2167  -25.1442  -34.3817 H   0  0  0  0  0  0  0  0  0  0  0  0
   12.7937  -36.3446  -32.4332 H   0  0  0  0  0  0  0  0  0  0  0  0
   12.7199  -35.7196  -30.7651 H   0  0  0  0  0  0  0  0  0  0  0  0
   11.8724  -37.1938  -31.1786 H   0  0  0  0  0  0  0  0  0  0  0  0
    9.3245  -36.8453  -31.7025 H   0  0  0  0  0  0  0  0  0  0  0  0
    9.1414  -35.5988  -32.9438 H   0  0  0  0  0  0  0  0  0  0  0  0
   10.2545  -36.9226  -33.2042 H   0  0  0  0  0  0  0  0  0  0  0  0
   14.0456  -26.0735  -26.7500 H   0  0  0  0  0  0  0  0  0  0  0  0
   12.5350  -26.0514  -25.8338 H   0  0  0  0  0  0  0  0  0  0  0  0
   14.0673  -26.3137  -25.0013 H   0  0  0  0  0  0  0  0  0  0  0  0
   12.9961  -29.4355  -24.5425 H   0  0  0  0  0  0  0  0  0  0  0  0
   14.5700  -29.5649  -25.3362 H   0  0  0  0  0  0  0  0  0  0  0  0
   14.2740  -28.2615  -24.1849 H   0  0  0  0  0  0  0  0  0  0  0  0
    9.0391  -27.6536  -29.8445 H   0  0  0  0  0  0  0  0  0  0  0  0
    7.6535  -26.3608  -31.3329 H   0  0  0  0  0  0  0  0  0  0  0  0
    8.4425  -29.1985  -34.5228 H   0  0  0  0  0  0  0  0  0  0  0  0
    9.8137  -30.5012  -33.0011 H   0  0  0  0  0  0  0  0  0  0  0  0
    8.3324  -31.8146  -31.1551 H   0  0  0  0  0  0  0  0  0  0  0  0
    8.5695  -34.1604  -31.6296 H   0  0  0  0  0  0  0  0  0  0  0  0
   12.8451  -33.8171  -31.0878 H   0  0  0  0  0  0  0  0  0  0  0  0
   12.5733  -31.5344  -30.3754 H   0  0  0  0  0  0  0  0  0  0  0  0
   11.2882  -31.3851  -28.2225 H   0  0  0  0  0  0  0  0  0  0  0  0
   12.6484  -30.5490  -26.4263 H   0  0  0  0  0  0  0  0  0  0  0  0
   12.5544  -26.6121  -28.2085 H   0  0  0  0  0  0  0  0  0  0  0  0
   11.3045  -27.4789  -30.0633 H   0  0  0  0  0  0  0  0  0  0  0  0
  1  2  4  0  0  0  0
  2  3  4  0  0  0  0
  3  4  2  0  0  0  0
  4  5  4  0  0  0  0
  5  6  4  0  0  0  0
  2  7  4  0  0  0  0
  6  7  2  0  0  0  0
  1  8  1  0  0  0  0
  8  9  4  0  0  0  0
  9 10  2  0  0  0  0
 10 11  4  0  0  0  0
 11 12  4  0  0  0  0
  8 13  4  0  0  0  0
 12 13  2  0  0  0  0
  1 14  4  0  0  0  0
 14 15  4  0  0  0  0
 15 16  2  0  0  0  0
 16 17  4  0  0  0  0
 17 18  4  0  0  0  0
 14 19  4  0  0  0  0
 18 19  2  0  0  0  0
  5 26  4  0  0  0  0
 20 26  1  0  0  0  0
 21 26  1  0  0  0  0
 11 27  4  0  0  0  0
 22 27  1  0  0  0  0
 23 27  1  0  0  0  0
 17 28  4  0  0  0  0
 24 28  1  0  0  0  0
 25 28  1  0  0  0  0
 25 29  1  0  0  0  0
 25 30  1  0  0  0  0
 25 31  1  0  0  0  0
 24 32  1  0  0  0  0
 24 33  1  0  0  0  0
 24 34  1  0  0  0  0
 23 35  1  0  0  0  0
 23 36  1  0  0  0  0
 23 37  1  0  0  0  0
 22 38  1  0  0  0  0
 22 39  1  0  0  0  0
 22 40  1  0  0  0  0
 21 41  1  0  0  0  0
 21 42  1  0  0  0  0
 21 43  1  0  0  0  0
 20 44  1  0  0  0  0
 20 45  1  0  0  0  0
 20 46  1  0  0  0  0
 19 47  1  0  0  0  0
 18 48  1  0  0  0  0
 16 49  1  0  0  0  0
 15 50  1  0  0  0  0
 13 51  1  0  0  0  0
 12 52  1  0  0  0  0
 10 53  1  0  0  0  0
  9 54  1  0  0  0  0
  7 55  1  0  0  0  0
  6 56  1  0  0  0  0
  4 57  1  0  0  0  0
  3 58  1  0  0  0  0
M  CHG  1   1   1
M  END
