 xtb: 6.5.1 (b24c23e)
          11082215373D

 42 45  0     0  0            999 V2000
    8.7725   -5.6973   -3.6569 C   0  0  0  0  0  0  0  0  0  0  0  0
    8.4580   -5.4164   -2.6632 H   0  0  0  0  0  0  0  0  0  0  0  0
    8.0186   -5.2598   -4.7315 C   0  0  0  0  0  0  0  0  0  0  0  0
    7.1433   -4.6433   -4.5924 H   0  0  0  0  0  0  0  0  0  0  0  0
    8.4630   -5.5563   -6.0129 C   0  0  0  0  0  0  0  0  0  0  0  0
    7.4073   -4.9303   -7.2928 Cl  0  0  0  0  0  0  0  0  0  0  0  0
    9.6364   -6.2794   -6.2777 C   0  0  0  0  0  0  0  0  0  0  0  0
    9.9277   -6.4815   -7.3011 H   0  0  0  0  0  0  0  0  0  0  0  0
   10.3758   -6.7335   -5.1661 C   0  0  0  0  0  0  0  0  0  0  0  0
   11.2785   -7.3209   -5.2870 H   0  0  0  0  0  0  0  0  0  0  0  0
    9.9325   -6.4535   -3.8516 C   0  0  0  0  0  0  0  0  0  0  0  0
   10.6780   -6.9312   -2.6568 C   0  0  0  0  0  0  0  0  0  0  0  0
   11.9434   -7.0881   -2.7896 N   0  0  0  0  0  0  0  0  0  0  0  0
    9.8893   -7.0481   -1.3881 C   0  0  0  0  0  0  0  0  0  0  0  0
    8.5666   -7.5313   -1.4592 C   0  0  0  0  0  0  0  0  0  0  0  0
    8.2303   -7.9851   -2.3847 H   0  0  0  0  0  0  0  0  0  0  0  0
    7.6890   -7.4332   -0.3779 C   0  0  0  0  0  0  0  0  0  0  0  0
    6.6947   -7.8526   -0.4534 H   0  0  0  0  0  0  0  0  0  0  0  0
    8.1213   -6.8390    0.8298 C   0  0  0  0  0  0  0  0  0  0  0  0
    7.4552   -6.7834    1.6797 H   0  0  0  0  0  0  0  0  0  0  0  0
    9.4281   -6.3641    0.9122 C   0  0  0  0  0  0  0  0  0  0  0  0
    9.7831   -5.9043    1.8267 H   0  0  0  0  0  0  0  0  0  0  0  0
   10.3338   -6.4327   -0.1788 C   0  0  0  0  0  0  0  0  0  0  0  0
   11.6931   -5.8804   -0.0686 C   0  0  0  0  0  0  0  0  0  0  0  0
   12.2374   -4.7401    0.6029 C   0  0  0  0  0  0  0  0  0  0  0  0
   11.5786   -3.6528    1.4111 C   0  0  0  0  0  0  0  0  0  0  0  0
   11.2766   -4.0102    2.3979 H   0  0  0  0  0  0  0  0  0  0  0  0
   10.7045   -3.2477    0.9022 H   0  0  0  0  0  0  0  0  0  0  0  0
   12.3093   -2.8555    1.5687 H   0  0  0  0  0  0  0  0  0  0  0  0
   13.5481   -4.6436    0.4199 N   0  0  0  0  0  0  0  0  0  0  0  0
   13.8981   -5.7172   -0.4745 O   0  0  0  0  0  0  0  0  0  0  0  0
   12.7593   -6.4035   -0.7389 C   0  0  0  0  0  0  0  0  0  0  0  0
   12.7374   -7.5705   -1.6682 C   0  0  0  0  0  0  0  0  0  0  0  0
   12.2062   -8.3984   -1.1738 H   0  0  0  0  0  0  0  0  0  0  0  0
   14.0956   -8.0480   -2.1292 C   0  0  0  0  0  0  0  0  0  0  0  0
   14.6439   -8.4726   -1.2850 H   0  0  0  0  0  0  0  0  0  0  0  0
   14.6848   -7.2088   -2.5114 H   0  0  0  0  0  0  0  0  0  0  0  0
   13.9369   -9.1010   -3.2308 C   0  0  0  0  0  0  0  0  0  0  0  0
   12.8959   -9.7755   -3.3884 O   0  0  0  0  0  0  0  0  0  0  0  0
   15.0431   -9.2557   -3.9963 N   0  0  0  0  0  0  0  0  0  0  0  0
   15.0281   -9.9113   -4.7596 H   0  0  0  0  0  0  0  0  0  0  0  0
   15.8365   -8.6322   -3.9263 H   0  0  0  0  0  0  0  0  0  0  0  0
  1  2  1  0  0  0  0
  1  3  4  0  0  0  0
  3  4  1  0  0  0  0
  3  5  4  0  0  0  0
  5  6  1  0  0  0  0
  5  7  4  0  0  0  0
  7  8  1  0  0  0  0
  7  9  4  0  0  0  0
  9 10  1  0  0  0  0
  1 11  4  0  0  0  0
  9 11  4  0  0  0  0
 11 12  1  0  0  0  0
 12 13  2  0  0  0  0
 12 14  1  0  0  0  0
 14 15  4  0  0  0  0
 15 16  1  0  0  0  0
 15 17  4  0  0  0  0
 17 18  1  0  0  0  0
 17 19  4  0  0  0  0
 19 20  1  0  0  0  0
 19 21  4  0  0  0  0
 21 22  1  0  0  0  0
 14 23  4  0  0  0  0
 21 23  4  0  0  0  0
 23 24  1  0  0  0  0
 24 25  4  0  0  0  0
 25 26  1  0  0  0  0
 26 27  1  0  0  0  0
 26 28  1  0  0  0  0
 26 29  1  0  0  0  0
 25 30  2  0  0  0  0
 30 31  1  0  0  0  0
 24 32  4  0  0  0  0
 31 32  1  0  0  0  0
 13 33  1  0  0  0  0
 32 33  1  0  0  0  0
 33 34  1  0  0  0  0
 33 35  1  0  0  0  0
 35 36  1  0  0  0  0
 35 37  1  0  0  0  0
 35 38  1  0  0  0  0
 38 39  2  0  0  0  0
 38 40  4  0  0  0  0
 40 41  1  0  0  0  0
 40 42  1  0  0  0  0
M  END
