 xtb: 6.6.0 (2ccbbd7)
          12272302293D

205208  0     0  0            999 V2000
   12.2241  -32.0127  -38.9212 H   0  0  0  0  0  0  0  0  0  0  0  0
   12.4440  -31.1970  -38.5200 N   0  0  0  0  0  0  0  0  0  0  0  0
   11.6580  -30.6680  -37.4120 C   0  0  0  0  0  0  0  0  0  0  0  0
   10.2540  -30.2760  -37.8550 C   0  0  0  0  0  0  0  0  0  0  0  0
    9.3300  -30.2630  -37.0350 O   0  0  0  0  0  0  0  0  0  0  0  0
   12.3700  -29.4640  -36.7940 C   0  0  0  0  0  0  0  0  0  0  0  0
   13.8190  -29.7220  -36.4180 C   0  0  0  0  0  0  0  0  0  0  0  0
   13.9890  -30.9590  -35.1200 S   0  0  0  0  0  0  0  0  0  0  0  0
   13.0300  -30.1940  -33.8190 C   0  0  0  0  0  0  0  0  0  0  0  0
   13.2690  -30.7210  -38.9220 H   0  0  0  0  0  0  0  0  0  0  0  0
   11.5730  -31.3910  -36.7130 H   0  0  0  0  0  0  0  0  0  0  0  0
   12.3420  -28.6960  -37.4500 H   0  0  0  0  0  0  0  0  0  0  0  0
   11.8710  -29.1810  -35.9630 H   0  0  0  0  0  0  0  0  0  0  0  0
   14.3280  -30.0080  -37.2620 H   0  0  0  0  0  0  0  0  0  0  0  0
   14.2440  -28.8330  -36.1310 H   0  0  0  0  0  0  0  0  0  0  0  0
   12.2610  -30.7870  -33.5730 H   0  0  0  0  0  0  0  0  0  0  0  0
   13.6080  -30.0510  -33.0140 H   0  0  0  0  0  0  0  0  0  0  0  0
   12.6780  -29.3110  -34.1340 H   0  0  0  0  0  0  0  0  0  0  0  0
   10.1133  -30.0190  -38.8635 H   0  0  0  0  0  0  0  0  0  0  0  0
    7.0797  -33.1599  -37.7430 H   0  0  0  0  0  0  0  0  0  0  0  0
    7.5810  -32.8000  -37.0470 N   0  0  0  0  0  0  0  0  0  0  0  0
    7.2420  -33.0090  -35.6490 C   0  0  0  0  0  0  0  0  0  0  0  0
    6.2190  -31.9790  -35.1750 C   0  0  0  0  0  0  0  0  0  0  0  0
    5.9330  -30.9860  -35.8480 O   0  0  0  0  0  0  0  0  0  0  0  0
    8.4990  -32.9360  -34.7790 C   0  0  0  0  0  0  0  0  0  0  0  0
    9.6100  -33.8440  -35.2300 C   0  0  0  0  0  0  0  0  0  0  0  0
    9.3330  -35.0540  -35.8460 C   0  0  0  0  0  0  0  0  0  0  0  0
   10.9340  -33.4850  -35.0360 C   0  0  0  0  0  0  0  0  0  0  0  0
   10.3560  -35.8870  -36.2600 C   0  0  0  0  0  0  0  0  0  0  0  0
   11.9610  -34.3140  -35.4470 C   0  0  0  0  0  0  0  0  0  0  0  0
   11.6710  -35.5170  -36.0600 C   0  0  0  0  0  0  0  0  0  0  0  0
    8.4050  -32.2350  -37.3570 H   0  0  0  0  0  0  0  0  0  0  0  0
    6.7960  -33.9090  -35.5830 H   0  0  0  0  0  0  0  0  0  0  0  0
    8.8340  -32.0050  -34.8080 H   0  0  0  0  0  0  0  0  0  0  0  0
    8.2460  -33.1970  -33.8590 H   0  0  0  0  0  0  0  0  0  0  0  0
    8.3860  -35.3300  -35.9950 H   0  0  0  0  0  0  0  0  0  0  0  0
   11.1490  -32.6120  -34.5920 H   0  0  0  0  0  0  0  0  0  0  0  0
   10.1330  -36.7640  -36.7060 H   0  0  0  0  0  0  0  0  0  0  0  0
   12.9240  -34.0340  -35.2940 H   0  0  0  0  0  0  0  0  0  0  0  0
   12.4110  -36.1220  -36.3610 H   0  0  0  0  0  0  0  0  0  0  0  0
    5.6680  -32.2300  -33.9910 N   0  0  0  0  0  0  0  0  0  0  0  0
    4.7820  -31.2980  -33.3140 C   0  0  0  0  0  0  0  0  0  0  0  0
    5.3640  -30.9470  -31.9510 C   0  0  0  0  0  0  0  0  0  0  0  0
    6.1970  -31.6740  -31.4010 O   0  0  0  0  0  0  0  0  0  0  0  0
    3.3680  -31.8740  -33.1570 C   0  0  0  0  0  0  0  0  0  0  0  0
    3.4410  -33.1690  -32.5470 O   0  0  0  0  0  0  0  0  0  0  0  0
    2.6840  -31.9920  -34.5120 C   0  0  0  0  0  0  0  0  0  0  0  0
    5.9300  -33.1630  -33.5880 H   0  0  0  0  0  0  0  0  0  0  0  0
    4.7220  -30.4580  -33.8570 H   0  0  0  0  0  0  0  0  0  0  0  0
    2.8280  -31.2640  -32.5420 H   0  0  0  0  0  0  0  0  0  0  0  0
    4.4200  -33.3800  -32.3720 H   0  0  0  0  0  0  0  0  0  0  0  0
    1.6970  -32.1130  -34.3850 H   0  0  0  0  0  0  0  0  0  0  0  0
    2.8470  -31.1610  -35.0480 H   0  0  0  0  0  0  0  0  0  0  0  0
    3.0500  -32.7810  -35.0100 H   0  0  0  0  0  0  0  0  0  0  0  0
    4.9070  -29.8280  -31.4040 N   0  0  0  0  0  0  0  0  0  0  0  0
    5.5200  -29.2660  -30.2080 C   0  0  0  0  0  0  0  0  0  0  0  0
    5.1380  -30.0670  -28.9640 C   0  0  0  0  0  0  0  0  0  0  0  0
    4.0010  -30.5300  -28.8430 O   0  0  0  0  0  0  0  0  0  0  0  0
    5.1000  -27.8110  -30.0260 C   0  0  0  0  0  0  0  0  0  0  0  0
    5.7530  -27.2390  -28.9070 O   0  0  0  0  0  0  0  0  0  0  0  0
    4.0970  -29.4000  -31.8890 H   0  0  0  0  0  0  0  0  0  0  0  0
    6.5200  -29.3200  -30.3120 H   0  0  0  0  0  0  0  0  0  0  0  0
    5.3470  -27.2990  -30.8420 H   0  0  0  0  0  0  0  0  0  0  0  0
    4.1170  -27.7760  -29.8800 H   0  0  0  0  0  0  0  0  0  0  0  0
    6.3490  -27.9030  -28.4730 H   0  0  0  0  0  0  0  0  0  0  0  0
    6.0740  -30.2490  -28.0270 N   0  0  0  0  0  0  0  0  0  0  0  0
    5.6950  -30.7880  -26.7160 C   0  0  0  0  0  0  0  0  0  0  0  0
    5.0310  -29.7570  -25.8290 C   0  0  0  0  0  0  0  0  0  0  0  0
    4.2700  -30.1360  -24.9280 O   0  0  0  0  0  0  0  0  0  0  0  0
    7.0340  -31.2450  -26.1240 C   0  0  0  0  0  0  0  0  0  0  0  0
    8.0340  -30.3260  -26.7540 C   0  0  0  0  0  0  0  0  0  0  0  0
    7.5320  -30.0810  -28.1570 C   0  0  0  0  0  0  0  0  0  0  0  0
    5.1010  -31.6040  -26.8300 H   0  0  0  0  0  0  0  0  0  0  0  0
    7.0330  -31.1450  -25.1300 H   0  0  0  0  0  0  0  0  0  0  0  0
    7.2200  -32.1960  -26.3640 H   0  0  0  0  0  0  0  0  0  0  0  0
    8.0930  -29.4640  -26.2410 H   0  0  0  0  0  0  0  0  0  0  0  0
    8.9430  -30.7530  -26.7700 H   0  0  0  0  0  0  0  0  0  0  0  0
    7.7540  -29.1580  -28.4660 H   0  0  0  0  0  0  0  0  0  0  0  0
    7.9080  -30.7480  -28.8000 H   0  0  0  0  0  0  0  0  0  0  0  0
    5.2940  -28.4700  -26.0550 N   0  0  0  0  0  0  0  0  0  0  0  0
    4.6710  -27.4100  -25.2770 C   0  0  0  0  0  0  0  0  0  0  0  0
    3.3300  -26.9750  -25.8450 C   0  0  0  0  0  0  0  0  0  0  0  0
    2.5200  -26.3930  -25.1130 O   0  0  0  0  0  0  0  0  0  0  0  0
    5.5890  -26.1880  -25.2040 C   0  0  0  0  0  0  0  0  0  0  0  0
    7.0450  -26.5250  -25.1690 C   0  0  0  0  0  0  0  0  0  0  0  0
    7.6800  -26.7900  -23.9700 C   0  0  0  0  0  0  0  0  0  0  0  0
    7.7810  -26.5700  -26.3360 C   0  0  0  0  0  0  0  0  0  0  0  0
    9.0260  -27.0990  -23.9360 C   0  0  0  0  0  0  0  0  0  0  0  0
    9.1210  -26.8750  -26.3100 C   0  0  0  0  0  0  0  0  0  0  0  0
    9.7480  -27.1410  -25.1090 C   0  0  0  0  0  0  0  0  0  0  0  0
    5.9730  -28.2960  -26.8240 H   0  0  0  0  0  0  0  0  0  0  0  0
    4.4880  -27.7890  -24.3550 H   0  0  0  0  0  0  0  0  0  0  0  0
    5.4180  -25.6350  -26.0070 H   0  0  0  0  0  0  0  0  0  0  0  0
    5.3650  -25.6940  -24.3760 H   0  0  0  0  0  0  0  0  0  0  0  0
    7.1630  -26.7600  -23.1160 H   0  0  0  0  0  0  0  0  0  0  0  0
    7.3300  -26.3780  -27.2120 H   0  0  0  0  0  0  0  0  0  0  0  0
    9.4710  -27.2910  -23.0520 H   0  0  0  0  0  0  0  0  0  0  0  0
    9.6500  -26.9030  -27.1790 H   0  0  0  0  0  0  0  0  0  0  0  0
   10.7240  -27.3640  -25.0880 H   0  0  0  0  0  0  0  0  0  0  0  0
    3.1343  -27.1817  -26.8535 H   0  0  0  0  0  0  0  0  0  0  0  0
    0.8341  -36.8868  -30.6140 H   0  0  0  0  0  0  0  0  0  0  0  0
    1.7170  -36.5850  -30.6630 N   0  0  0  0  0  0  0  0  0  0  0  0
    2.5950  -37.0410  -31.7350 C   0  0  0  0  0  0  0  0  0  0  0  0
    2.9190  -38.5230  -31.5970 C   0  0  0  0  0  0  0  0  0  0  0  0
    2.9560  -39.2520  -32.5950 O   0  0  0  0  0  0  0  0  0  0  0  0
    3.8820  -36.2150  -31.7480 C   0  0  0  0  0  0  0  0  0  0  0  0
    4.8980  -36.6760  -32.7700 C   0  0  0  0  0  0  0  0  0  0  0  0
    4.8480  -36.2230  -34.0810 C   0  0  0  0  0  0  0  0  0  0  0  0
    5.9110  -37.5630  -32.4220 C   0  0  0  0  0  0  0  0  0  0  0  0
    5.7740  -36.6420  -35.0170 C   0  0  0  0  0  0  0  0  0  0  0  0
    6.8390  -37.9890  -33.3520 C   0  0  0  0  0  0  0  0  0  0  0  0
    6.7670  -37.5240  -34.6470 C   0  0  0  0  0  0  0  0  0  0  0  0
    7.6920  -37.9440  -35.5770 O   0  0  0  0  0  0  0  0  0  0  0  0
    2.0010  -35.9290  -29.9230 H   0  0  0  0  0  0  0  0  0  0  0  0
    2.1180  -36.9050  -32.6140 H   0  0  0  0  0  0  0  0  0  0  0  0
    3.6440  -35.2680  -31.9500 H   0  0  0  0  0  0  0  0  0  0  0  0
    4.3010  -36.2740  -30.8450 H   0  0  0  0  0  0  0  0  0  0  0  0
    4.1270  -35.5810  -34.3550 H   0  0  0  0  0  0  0  0  0  0  0  0
    5.9670  -37.8960  -31.4800 H   0  0  0  0  0  0  0  0  0  0  0  0
    5.7250  -36.3050  -35.9610 H   0  0  0  0  0  0  0  0  0  0  0  0
    7.5600  -38.6320  -33.0870 H   0  0  0  0  0  0  0  0  0  0  0  0
    8.3230  -38.5980  -35.1290 H   0  0  0  0  0  0  0  0  0  0  0  0
    3.1600  -38.9860  -30.3710 N   0  0  0  0  0  0  0  0  0  0  0  0
    3.5940  -40.3560  -30.1320 C   0  0  0  0  0  0  0  0  0  0  0  0
    2.4390  -41.3410  -30.0470 C   0  0  0  0  0  0  0  0  0  0  0  0
    2.6220  -42.4570  -29.5450 O   0  0  0  0  0  0  0  0  0  0  0  0
    4.4500  -40.4140  -28.8660 C   0  0  0  0  0  0  0  0  0  0  0  0
    5.7740  -39.7140  -29.0490 C   0  0  0  0  0  0  0  0  0  0  0  0
    6.8460  -40.3670  -29.6410 C   0  0  0  0  0  0  0  0  0  0  0  0
    5.9450  -38.3910  -28.6610 C   0  0  0  0  0  0  0  0  0  0  0  0
    8.0540  -39.7320  -29.8270 C   0  0  0  0  0  0  0  0  0  0  0  0
    7.1530  -37.7460  -28.8430 C   0  0  0  0  0  0  0  0  0  0  0  0
    8.2030  -38.4220  -29.4280 C   0  0  0  0  0  0  0  0  0  0  0  0
    9.4100  -37.7880  -29.6130 O   0  0  0  0  0  0  0  0  0  0  0  0
    3.0120  -38.2910  -29.6100 H   0  0  0  0  0  0  0  0  0  0  0  0
    4.1910  -40.6380  -30.9040 H   0  0  0  0  0  0  0  0  0  0  0  0
    3.9560  -39.9660  -28.1350 H   0  0  0  0  0  0  0  0  0  0  0  0
    4.6250  -41.3640  -28.6510 H   0  0  0  0  0  0  0  0  0  0  0  0
    6.7380  -41.3210  -29.9380 H   0  0  0  0  0  0  0  0  0  0  0  0
    5.1810  -37.9000  -28.2450 H   0  0  0  0  0  0  0  0  0  0  0  0
    8.8220  -40.2200  -30.2520 H   0  0  0  0  0  0  0  0  0  0  0  0
    7.2660  -36.7950  -28.5520 H   0  0  0  0  0  0  0  0  0  0  0  0
    9.3370  -36.8450  -29.2430 H   0  0  0  0  0  0  0  0  0  0  0  0
    1.5107  -41.0392  -30.4251 H   0  0  0  0  0  0  0  0  0  0  0  0
   10.3553  -30.0398  -30.4098 C   0  0  0  0  0  0  0  0  0  0  0  0
   11.1491  -29.5235  -29.3340 C   0  0  0  0  0  0  0  0  0  0  0  0
   11.5749  -28.1746  -29.2800 C   0  0  0  0  0  0  0  0  0  0  0  0
   12.3130  -27.6841  -28.2320 C   0  0  0  0  0  0  0  0  0  0  0  0
   12.7102  -28.5032  -27.1474 C   0  0  0  0  0  0  0  0  0  0  0  0
   12.3512  -29.8731  -27.2322 C   0  0  0  0  0  0  0  0  0  0  0  0
   11.5828  -30.3493  -28.2668 C   0  0  0  0  0  0  0  0  0  0  0  0
   10.4338  -31.4441  -30.6912 C   0  0  0  0  0  0  0  0  0  0  0  0
   11.6838  -32.0943  -30.6129 C   0  0  0  0  0  0  0  0  0  0  0  0
   11.8432  -33.3933  -31.0162 C   0  0  0  0  0  0  0  0  0  0  0  0
   10.7393  -34.1904  -31.4198 C   0  0  0  0  0  0  0  0  0  0  0  0
    9.4662  -33.5646  -31.3929 C   0  0  0  0  0  0  0  0  0  0  0  0
    9.3339  -32.2301  -31.1034 C   0  0  0  0  0  0  0  0  0  0  0  0
    9.5602  -29.2130  -31.2766 C   0  0  0  0  0  0  0  0  0  0  0  0
    9.3574  -29.5922  -32.6336 C   0  0  0  0  0  0  0  0  0  0  0  0
    8.5951  -28.8437  -33.4968 C   0  0  0  0  0  0  0  0  0  0  0  0
    7.9206  -27.6647  -33.0503 C   0  0  0  0  0  0  0  0  0  0  0  0
    8.1635  -27.2470  -31.7128 C   0  0  0  0  0  0  0  0  0  0  0  0
    8.9443  -27.9971  -30.8698 C   0  0  0  0  0  0  0  0  0  0  0  0
   13.8143  -28.8533  -24.9959 C   0  0  0  0  0  0  0  0  0  0  0  0
   13.5019  -26.5562  -25.9205 C   0  0  0  0  0  0  0  0  0  0  0  0
    9.8749  -36.2261  -32.4511 C   0  0  0  0  0  0  0  0  0  0  0  0
   12.1445  -36.1993  -31.5445 C   0  0  0  0  0  0  0  0  0  0  0  0
    6.6087  -25.6626  -33.5037 C   0  0  0  0  0  0  0  0  0  0  0  0
    6.8307  -27.4284  -35.2253 C   0  0  0  0  0  0  0  0  0  0  0  0
   13.3632  -27.9877  -26.0706 N   0  0  0  0  0  0  0  0  0  0  0  0
   10.9358  -35.4639  -31.8315 N   0  0  0  0  0  0  0  0  0  0  0  0
    7.0980  -26.9678  -33.8697 N   0  0  0  0  0  0  0  0  0  0  0  0
    7.6788  -27.2411  -35.8849 H   0  0  0  0  0  0  0  0  0  0  0  0
    6.6039  -28.4962  -35.2445 H   0  0  0  0  0  0  0  0  0  0  0  0
    5.9597  -26.9025  -35.6081 H   0  0  0  0  0  0  0  0  0  0  0  0
    5.7567  -25.7310  -32.8179 H   0  0  0  0  0  0  0  0  0  0  0  0
    7.3903  -25.0672  -33.0308 H   0  0  0  0  0  0  0  0  0  0  0  0
    6.2791  -25.1383  -34.3968 H   0  0  0  0  0  0  0  0  0  0  0  0
   12.7555  -36.3174  -32.4402 H   0  0  0  0  0  0  0  0  0  0  0  0
   12.7171  -35.7196  -30.7583 H   0  0  0  0  0  0  0  0  0  0  0  0
   11.8465  -37.1837  -31.1791 H   0  0  0  0  0  0  0  0  0  0  0  0
    9.3414  -36.8480  -31.7277 H   0  0  0  0  0  0  0  0  0  0  0  0
    9.1631  -35.5694  -32.9446 H   0  0  0  0  0  0  0  0  0  0  0  0
   10.3046  -36.8712  -33.2159 H   0  0  0  0  0  0  0  0  0  0  0  0
   14.0213  -26.1018  -26.7618 H   0  0  0  0  0  0  0  0  0  0  0  0
   12.5176  -26.0831  -25.8158 H   0  0  0  0  0  0  0  0  0  0  0  0
   14.0635  -26.3440  -25.0140 H   0  0  0  0  0  0  0  0  0  0  0  0
   13.0008  -29.4467  -24.5766 H   0  0  0  0  0  0  0  0  0  0  0  0
   14.5871  -29.5298  -25.3745 H   0  0  0  0  0  0  0  0  0  0  0  0
   14.2542  -28.2512  -24.2077 H   0  0  0  0  0  0  0  0  0  0  0  0
    9.0310  -27.6941  -29.8357 H   0  0  0  0  0  0  0  0  0  0  0  0
    7.6578  -26.3847  -31.3118 H   0  0  0  0  0  0  0  0  0  0  0  0
    8.4888  -29.1799  -34.5135 H   0  0  0  0  0  0  0  0  0  0  0  0
    9.8401  -30.4853  -32.9948 H   0  0  0  0  0  0  0  0  0  0  0  0
    8.3429  -31.7997  -31.1087 H   0  0  0  0  0  0  0  0  0  0  0  0
    8.5669  -34.1348  -31.5648 H   0  0  0  0  0  0  0  0  0  0  0  0
   12.8419  -33.7785  -31.1130 H   0  0  0  0  0  0  0  0  0  0  0  0
   12.5593  -31.5062  -30.3827 H   0  0  0  0  0  0  0  0  0  0  0  0
   11.3025  -31.3917  -28.2654 H   0  0  0  0  0  0  0  0  0  0  0  0
   12.6620  -30.5661  -26.4691 H   0  0  0  0  0  0  0  0  0  0  0  0
   12.5341  -26.6299  -28.2233 H   0  0  0  0  0  0  0  0  0  0  0  0
   11.2948  -27.5071  -30.0793 H   0  0  0  0  0  0  0  0  0  0  0  0
   10.9200  -39.5550  -31.1140 O   0  0  0  0  0  0  0  0  0  0  0  0
   10.3740  -38.9160  -30.5720 H   0  0  0  0  0  0  0  0  0  0  0  0
   11.7850  -39.1510  -31.4110 H   0  0  0  0  0  0  0  0  0  0  0  0
  1  2  1  0  0  0  0
  2  3  1  0  0  0  0
  3  4  1  0  0  0  0
  4  5  2  0  0  0  0
  3  6  1  0  0  0  0
  6  7  1  0  0  0  0
  7  8  1  0  0  0  0
  8  9  1  0  0  0  0
  2 10  1  0  0  0  0
  3 11  1  0  0  0  0
  6 12  1  0  0  0  0
  6 13  1  0  0  0  0
  7 14  1  0  0  0  0
  7 15  1  0  0  0  0
  9 16  1  0  0  0  0
  9 17  1  0  0  0  0
  9 18  1  0  0  0  0
  4 19  1  0  0  0  0
 20 21  1  0  0  0  0
 21 22  1  0  0  0  0
 22 23  1  0  0  0  0
 23 24  2  0  0  0  0
 22 25  1  0  0  0  0
 25 26  1  0  0  0  0
 26 27  4  0  0  0  0
 26 28  4  0  0  0  0
 27 29  4  0  0  0  0
 28 30  4  0  0  0  0
 29 31  4  0  0  0  0
 30 31  4  0  0  0  0
 21 32  1  0  0  0  0
 22 33  1  0  0  0  0
 25 34  1  0  0  0  0
 25 35  1  0  0  0  0
 27 36  1  0  0  0  0
 28 37  1  0  0  0  0
 29 38  1  0  0  0  0
 30 39  1  0  0  0  0
 31 40  1  0  0  0  0
 23 41  4  0  0  0  0
 41 42  1  0  0  0  0
 42 43  1  0  0  0  0
 43 44  2  0  0  0  0
 42 45  1  0  0  0  0
 45 46  1  0  0  0  0
 45 47  1  0  0  0  0
 41 48  1  0  0  0  0
 42 49  1  0  0  0  0
 45 50  1  0  0  0  0
 46 51  1  0  0  0  0
 47 52  1  0  0  0  0
 47 53  1  0  0  0  0
 47 54  1  0  0  0  0
 43 55  4  0  0  0  0
 55 56  1  0  0  0  0
 56 57  1  0  0  0  0
 57 58  2  0  0  0  0
 56 59  1  0  0  0  0
 59 60  1  0  0  0  0
 55 61  1  0  0  0  0
 56 62  1  0  0  0  0
 59 63  1  0  0  0  0
 59 64  1  0  0  0  0
 60 65  1  0  0  0  0
 57 66  4  0  0  0  0
 66 67  1  0  0  0  0
 67 68  1  0  0  0  0
 68 69  2  0  0  0  0
 67 70  1  0  0  0  0
 70 71  1  0  0  0  0
 66 72  1  0  0  0  0
 71 72  1  0  0  0  0
 67 73  1  0  0  0  0
 70 74  1  0  0  0  0
 70 75  1  0  0  0  0
 71 76  1  0  0  0  0
 71 77  1  0  0  0  0
 72 78  1  0  0  0  0
 72 79  1  0  0  0  0
 68 80  4  0  0  0  0
 80 81  1  0  0  0  0
 81 82  1  0  0  0  0
 82 83  2  0  0  0  0
 81 84  1  0  0  0  0
 84 85  1  0  0  0  0
 85 86  4  0  0  0  0
 85 87  4  0  0  0  0
 86 88  4  0  0  0  0
 87 89  4  0  0  0  0
 88 90  4  0  0  0  0
 89 90  4  0  0  0  0
 80 91  1  0  0  0  0
 81 92  1  0  0  0  0
 84 93  1  0  0  0  0
 84 94  1  0  0  0  0
 86 95  1  0  0  0  0
 87 96  1  0  0  0  0
 88 97  1  0  0  0  0
 89 98  1  0  0  0  0
 90 99  1  0  0  0  0
 82100  1  0  0  0  0
101102  1  0  0  0  0
102103  1  0  0  0  0
103104  1  0  0  0  0
104105  2  0  0  0  0
103106  1  0  0  0  0
106107  1  0  0  0  0
107108  4  0  0  0  0
107109  4  0  0  0  0
108110  4  0  0  0  0
109111  4  0  0  0  0
110112  4  0  0  0  0
111112  4  0  0  0  0
112113  1  0  0  0  0
102114  1  0  0  0  0
103115  1  0  0  0  0
106116  1  0  0  0  0
106117  1  0  0  0  0
108118  1  0  0  0  0
109119  1  0  0  0  0
110120  1  0  0  0  0
111121  1  0  0  0  0
113122  1  0  0  0  0
104123  4  0  0  0  0
123124  1  0  0  0  0
124125  1  0  0  0  0
125126  2  0  0  0  0
124127  1  0  0  0  0
127128  1  0  0  0  0
128129  4  0  0  0  0
128130  4  0  0  0  0
129131  4  0  0  0  0
130132  4  0  0  0  0
131133  4  0  0  0  0
132133  4  0  0  0  0
133134  1  0  0  0  0
123135  1  0  0  0  0
124136  1  0  0  0  0
127137  1  0  0  0  0
127138  1  0  0  0  0
129139  1  0  0  0  0
130140  1  0  0  0  0
131141  1  0  0  0  0
132142  1  0  0  0  0
134143  1  0  0  0  0
125144  1  0  0  0  0
145146  4  0  0  0  0
146147  4  0  0  0  0
147148  2  0  0  0  0
148149  4  0  0  0  0
149150  4  0  0  0  0
146151  4  0  0  0  0
150151  2  0  0  0  0
145152  1  0  0  0  0
152153  4  0  0  0  0
153154  2  0  0  0  0
154155  4  0  0  0  0
155156  4  0  0  0  0
152157  4  0  0  0  0
156157  2  0  0  0  0
145158  4  0  0  0  0
158159  4  0  0  0  0
159160  2  0  0  0  0
160161  4  0  0  0  0
161162  4  0  0  0  0
158163  4  0  0  0  0
162163  2  0  0  0  0
149170  4  0  0  0  0
164170  1  0  0  0  0
165170  1  0  0  0  0
155171  4  0  0  0  0
166171  1  0  0  0  0
167171  1  0  0  0  0
161172  4  0  0  0  0
168172  1  0  0  0  0
169172  1  0  0  0  0
169173  1  0  0  0  0
169174  1  0  0  0  0
169175  1  0  0  0  0
168176  1  0  0  0  0
168177  1  0  0  0  0
168178  1  0  0  0  0
167179  1  0  0  0  0
167180  1  0  0  0  0
167181  1  0  0  0  0
166182  1  0  0  0  0
166183  1  0  0  0  0
166184  1  0  0  0  0
165185  1  0  0  0  0
165186  1  0  0  0  0
165187  1  0  0  0  0
164188  1  0  0  0  0
164189  1  0  0  0  0
164190  1  0  0  0  0
163191  1  0  0  0  0
162192  1  0  0  0  0
160193  1  0  0  0  0
159194  1  0  0  0  0
157195  1  0  0  0  0
156196  1  0  0  0  0
154197  1  0  0  0  0
153198  1  0  0  0  0
151199  1  0  0  0  0
150200  1  0  0  0  0
148201  1  0  0  0  0
147202  1  0  0  0  0
203204  1  0  0  0  0
203205  1  0  0  0  0
M  CHG  1   1   1
M  END
