 xtb: 6.6.0 (2ccbbd7)
          01092423023D

 34 36  0     0  0            999 V2000
   50.0833   48.3441   31.2794 C   0  0  0  0  0  0  0  0  0  0  0  0
   50.6888   48.9385   30.1211 O   0  0  0  0  0  0  0  0  0  0  0  0
   50.5547   46.8832   31.5119 C   0  0  0  0  0  0  0  0  0  0  0  0
   50.5228   46.1877   30.1753 N   0  0  0  0  0  0  0  0  0  0  0  0
   51.9945   46.7451   32.0990 C   0  0  0  0  0  0  0  0  0  0  0  0
   51.9582   46.0488   33.3525 O   0  0  0  0  0  0  0  0  0  0  0  0
   52.8524   46.0086   31.0018 C   0  0  0  0  0  0  0  0  0  0  0  0
   53.3337   44.7072   31.3452 O   0  0  0  0  0  0  0  0  0  0  0  0
   51.9461   45.9135   29.7307 C   0  0  0  0  0  0  0  0  0  0  0  0
   55.7481   47.6113   26.5306 N   0  0  0  0  0  0  0  0  0  0  0  0
   55.8504   46.9593   27.7243 C   0  0  0  0  0  0  0  0  0  0  0  0
   54.8687   46.6413   28.5021 N   0  0  0  0  0  0  0  0  0  0  0  0
   53.6204   46.9746   27.9833 C   0  0  0  0  0  0  0  0  0  0  0  0
   53.4635   47.6660   26.7842 C   0  0  0  0  0  0  0  0  0  0  0  0
   54.5596   48.1051   25.9719 C   0  0  0  0  0  0  0  0  0  0  0  0
   54.5871   48.8289   24.9808 O   0  0  0  0  0  0  0  0  0  0  0  0
   52.1295   47.8417   26.5631 N   0  0  0  0  0  0  0  0  0  0  0  0
   51.4367   47.3064   27.6149 C   0  0  0  0  0  0  0  0  0  0  0  0
   52.3091   46.7336   28.5236 C   0  0  0  0  0  0  0  0  0  0  0  0
   50.0759   46.8382   29.5055 H   0  0  0  0  0  0  0  0  0  0  0  0
   56.5760   47.9450   26.0406 H   0  0  0  0  0  0  0  0  0  0  0  0
   49.9592   45.3023   30.2164 H   0  0  0  0  0  0  0  0  0  0  0  0
   51.7567   48.5060   25.8916 H   0  0  0  0  0  0  0  0  0  0  0  0
   52.5346   44.2192   31.6821 H   0  0  0  0  0  0  0  0  0  0  0  0
   51.7900   46.7042   34.0467 H   0  0  0  0  0  0  0  0  0  0  0  0
   51.6504   48.8244   30.1824 H   0  0  0  0  0  0  0  0  0  0  0  0
   56.8594   46.6503   27.9934 H   0  0  0  0  0  0  0  0  0  0  0  0
   50.3574   47.4032   27.6173 H   0  0  0  0  0  0  0  0  0  0  0  0
   51.9746   44.8554   29.4511 H   0  0  0  0  0  0  0  0  0  0  0  0
   53.7397   46.6017   30.7758 H   0  0  0  0  0  0  0  0  0  0  0  0
   52.4262   47.7521   32.2419 H   0  0  0  0  0  0  0  0  0  0  0  0
   49.8676   46.3796   32.1997 H   0  0  0  0  0  0  0  0  0  0  0  0
   49.0041   48.3407   31.0814 H   0  0  0  0  0  0  0  0  0  0  0  0
   50.2478   48.9666   32.1746 H   0  0  0  0  0  0  0  0  0  0  0  0
  1  2  1  0  0  0  0
  1  3  1  0  0  0  0
  3  4  1  0  0  0  0
  3  5  1  0  0  0  0
  5  6  1  0  0  0  0
  5  7  1  0  0  0  0
  7  8  1  0  0  0  0
  4  9  1  0  0  0  0
  7  9  1  0  0  0  0
 10 11  4  0  0  0  0
 11 12  2  0  0  0  0
 12 13  1  0  0  0  0
 13 14  4  0  0  0  0
 10 15  1  0  0  0  0
 14 15  1  0  0  0  0
 15 16  2  0  0  0  0
 14 17  4  0  0  0  0
 17 18  4  0  0  0  0
  9 19  1  0  0  0  0
 13 19  4  0  0  0  0
 18 19  2  0  0  0  0
  4 20  1  0  0  0  0
 10 21  1  0  0  0  0
  4 22  1  0  0  0  0
 17 23  1  0  0  0  0
  8 24  1  0  0  0  0
  6 25  1  0  0  0  0
  2 26  1  0  0  0  0
 11 27  1  0  0  0  0
 18 28  1  0  0  0  0
  9 29  1  0  0  0  0
  7 30  1  0  0  0  0
  5 31  1  0  0  0  0
  3 32  1  0  0  0  0
  1 33  1  0  0  0  0
  1 34  1  0  0  0  0
M  CHG  1   1   1
M  END
