 xtb: 6.6.0 (2ccbbd7)
          01092413013D

 59 61  0     0  0            999 V2000
   48.2384  -28.0105  -96.0800 C   0  0  0  0  0  0  0  0  0  0  0  0
   48.9502  -27.1865  -95.2106 C   0  0  0  0  0  0  0  0  0  0  0  0
   48.5534  -25.8784  -94.9703 C   0  0  0  0  0  0  0  0  0  0  0  0
   47.4523  -25.3635  -95.6551 C   0  0  0  0  0  0  0  0  0  0  0  0
   47.0817  -24.0521  -95.5104 O   0  0  0  0  0  0  0  0  0  0  0  0
   46.7534  -26.1717  -96.5522 C   0  0  0  0  0  0  0  0  0  0  0  0
   47.1395  -27.4827  -96.7442 C   0  0  0  0  0  0  0  0  0  0  0  0
   48.6182  -29.4177  -96.3164 C   0  0  0  0  0  0  0  0  0  0  0  0
   49.0122  -29.8128  -97.5313 C   0  0  0  0  0  0  0  0  0  0  0  0
   49.2516  -28.9311  -98.7433 C   0  0  0  0  0  0  0  0  0  0  0  0
   48.2650  -29.2712  -99.8829 C   0  0  0  0  0  0  0  0  0  0  0  0
   49.2954  -31.2399  -97.7707 C   0  0  0  0  0  0  0  0  0  0  0  0
   50.5739  -31.6580  -98.1541 C   0  0  0  0  0  0  0  0  0  0  0  0
   50.8215  -32.9830  -98.4546 C   0  0  0  0  0  0  0  0  0  0  0  0
   49.7701  -33.8887  -98.4992 C   0  0  0  0  0  0  0  0  0  0  0  0
   48.4950  -33.4777  -98.1570 C   0  0  0  0  0  0  0  0  0  0  0  0
   48.2651  -32.1842  -97.7186 C   0  0  0  0  0  0  0  0  0  0  0  0
   48.6644  -30.2684  -95.0923 C   0  0  0  0  0  0  0  0  0  0  0  0
   49.8314  -30.9556  -94.7117 C   0  0  0  0  0  0  0  0  0  0  0  0
   49.9232  -31.6286  -93.5057 C   0  0  0  0  0  0  0  0  0  0  0  0
   48.8402  -31.6379  -92.6279 C   0  0  0  0  0  0  0  0  0  0  0  0
   48.9386  -32.4306  -91.4763 O   0  0  0  0  0  0  0  0  0  0  0  0
   47.6992  -30.9383  -92.9764 C   0  0  0  0  0  0  0  0  0  0  0  0
   47.5978  -30.2890  -94.1981 C   0  0  0  0  0  0  0  0  0  0  0  0
   48.4605  -31.9771  -90.2239 C   0  0  0  0  0  0  0  0  0  0  0  0
   48.5874  -33.1264  -89.2316 C   0  0  0  0  0  0  0  0  0  0  0  0
   49.9560  -33.2662  -88.6222 N   0  0  0  0  0  0  0  0  0  0  0  0
   51.0706  -32.5857  -89.3563 C   0  0  0  0  0  0  0  0  0  0  0  0
   49.9679  -32.8574  -87.1943 C   0  0  0  0  0  0  0  0  0  0  0  0
   46.1394  -24.0313  -95.3510 H   0  0  0  0  0  0  0  0  0  0  0  0
   49.8178  -27.5866  -94.6975 H   0  0  0  0  0  0  0  0  0  0  0  0
   49.0889  -25.2475  -94.2715 H   0  0  0  0  0  0  0  0  0  0  0  0
   50.1821  -34.2701  -88.6007 H   0  0  0  0  0  0  0  0  0  0  0  0
   45.8924  -25.7696  -97.0690 H   0  0  0  0  0  0  0  0  0  0  0  0
   46.5741  -28.1142  -97.4195 H   0  0  0  0  0  0  0  0  0  0  0  0
   50.2616  -29.1352  -99.1147 H   0  0  0  0  0  0  0  0  0  0  0  0
   49.2044  -27.8739  -98.4763 H   0  0  0  0  0  0  0  0  0  0  0  0
   47.2527  -28.9661  -99.6216 H   0  0  0  0  0  0  0  0  0  0  0  0
   48.5418  -28.7913 -100.8186 H   0  0  0  0  0  0  0  0  0  0  0  0
   48.2646  -30.3498 -100.0237 H   0  0  0  0  0  0  0  0  0  0  0  0
   51.3757  -30.9292  -98.2066 H   0  0  0  0  0  0  0  0  0  0  0  0
   51.8270  -33.2976  -98.7045 H   0  0  0  0  0  0  0  0  0  0  0  0
   49.9544  -34.9170  -98.7815 H   0  0  0  0  0  0  0  0  0  0  0  0
   47.6735  -34.1752  -98.2105 H   0  0  0  0  0  0  0  0  0  0  0  0
   47.2907  -31.8837  -97.3532 H   0  0  0  0  0  0  0  0  0  0  0  0
   50.6983  -30.9398  -95.3582 H   0  0  0  0  0  0  0  0  0  0  0  0
   50.8260  -32.1517  -93.2204 H   0  0  0  0  0  0  0  0  0  0  0  0
   46.9478  -30.8100  -92.2093 H   0  0  0  0  0  0  0  0  0  0  0  0
   46.6935  -29.7502  -94.4404 H   0  0  0  0  0  0  0  0  0  0  0  0
   47.4005  -31.6941  -90.2942 H   0  0  0  0  0  0  0  0  0  0  0  0
   49.0105  -31.0910  -89.8931 H   0  0  0  0  0  0  0  0  0  0  0  0
   48.3587  -34.0600  -89.7483 H   0  0  0  0  0  0  0  0  0  0  0  0
   47.8911  -33.0035  -88.4041 H   0  0  0  0  0  0  0  0  0  0  0  0
   52.0184  -33.0031  -89.0091 H   0  0  0  0  0  0  0  0  0  0  0  0
   50.9678  -32.7193  -90.4262 H   0  0  0  0  0  0  0  0  0  0  0  0
   51.0715  -31.5207  -89.0994 H   0  0  0  0  0  0  0  0  0  0  0  0
   49.7206  -31.7969  -87.1098 H   0  0  0  0  0  0  0  0  0  0  0  0
   49.2806  -33.4724  -86.6151 H   0  0  0  0  0  0  0  0  0  0  0  0
   50.9737  -32.9920  -86.7875 H   0  0  0  0  0  0  0  0  0  0  0  0
  1  2  4  0  0  0  0
  2  3  4  0  0  0  0
  3  4  4  0  0  0  0
  4  5  1  0  0  0  0
  4  6  4  0  0  0  0
  1  7  4  0  0  0  0
  6  7  4  0  0  0  0
  1  8  1  0  0  0  0
  8  9  2  0  0  0  0
  9 10  1  0  0  0  0
 10 11  1  0  0  0  0
  9 12  1  0  0  0  0
 12 13  4  0  0  0  0
 13 14  4  0  0  0  0
 14 15  4  0  0  0  0
 15 16  4  0  0  0  0
 12 17  4  0  0  0  0
 16 17  4  0  0  0  0
  8 18  1  0  0  0  0
 18 19  4  0  0  0  0
 19 20  4  0  0  0  0
 20 21  4  0  0  0  0
 21 22  1  0  0  0  0
 21 23  4  0  0  0  0
 18 24  4  0  0  0  0
 23 24  4  0  0  0  0
 22 25  1  0  0  0  0
 25 26  1  0  0  0  0
 26 27  1  0  0  0  0
 27 28  1  0  0  0  0
 27 29  1  0  0  0  0
  5 30  1  0  0  0  0
  2 31  1  0  0  0  0
  3 32  1  0  0  0  0
 27 33  1  0  0  0  0
  6 34  1  0  0  0  0
  7 35  1  0  0  0  0
 10 36  1  0  0  0  0
 10 37  1  0  0  0  0
 11 38  1  0  0  0  0
 11 39  1  0  0  0  0
 11 40  1  0  0  0  0
 13 41  1  0  0  0  0
 14 42  1  0  0  0  0
 15 43  1  0  0  0  0
 16 44  1  0  0  0  0
 17 45  1  0  0  0  0
 19 46  1  0  0  0  0
 20 47  1  0  0  0  0
 23 48  1  0  0  0  0
 24 49  1  0  0  0  0
 25 50  1  0  0  0  0
 25 51  1  0  0  0  0
 26 52  1  0  0  0  0
 26 53  1  0  0  0  0
 28 54  1  0  0  0  0
 28 55  1  0  0  0  0
 28 56  1  0  0  0  0
 29 57  1  0  0  0  0
 29 58  1  0  0  0  0
 29 59  1  0  0  0  0
M  CHG  1   1   1
M  END
