 xtb: 6.6.0 (2ccbbd7)
          01092414063D

 59 61  0     0  0            999 V2000
   48.2341  -28.0059  -96.0845 C   0  0  0  0  0  0  0  0  0  0  0  0
   48.9428  -27.1840  -95.1971 C   0  0  0  0  0  0  0  0  0  0  0  0
   48.5499  -25.8722  -94.9579 C   0  0  0  0  0  0  0  0  0  0  0  0
   47.4408  -25.3592  -95.6461 C   0  0  0  0  0  0  0  0  0  0  0  0
   47.0838  -24.0553  -95.4700 O   0  0  0  0  0  0  0  0  0  0  0  0
   46.7424  -26.1647  -96.5446 C   0  0  0  0  0  0  0  0  0  0  0  0
   47.1370  -27.4775  -96.7499 C   0  0  0  0  0  0  0  0  0  0  0  0
   48.6092  -29.4186  -96.3051 C   0  0  0  0  0  0  0  0  0  0  0  0
   49.0024  -29.8087  -97.5289 C   0  0  0  0  0  0  0  0  0  0  0  0
   49.2635  -28.9314  -98.7582 C   0  0  0  0  0  0  0  0  0  0  0  0
   48.2706  -29.2617  -99.8897 C   0  0  0  0  0  0  0  0  0  0  0  0
   49.2909  -31.2375  -97.7774 C   0  0  0  0  0  0  0  0  0  0  0  0
   50.5790  -31.6603  -98.1384 C   0  0  0  0  0  0  0  0  0  0  0  0
   50.8246  -32.9864  -98.4506 C   0  0  0  0  0  0  0  0  0  0  0  0
   49.7686  -33.8954  -98.4949 C   0  0  0  0  0  0  0  0  0  0  0  0
   48.4848  -33.4878  -98.1511 C   0  0  0  0  0  0  0  0  0  0  0  0
   48.2594  -32.1881  -97.7195 C   0  0  0  0  0  0  0  0  0  0  0  0
   48.6663  -30.2702  -95.0822 C   0  0  0  0  0  0  0  0  0  0  0  0
   49.8340  -30.9617  -94.7032 C   0  0  0  0  0  0  0  0  0  0  0  0
   49.9248  -31.6349  -93.4996 C   0  0  0  0  0  0  0  0  0  0  0  0
   48.8372  -31.6604  -92.6122 C   0  0  0  0  0  0  0  0  0  0  0  0
   48.9293  -32.4225  -91.5021 O   0  0  0  0  0  0  0  0  0  0  0  0
   47.6906  -30.9492  -92.9683 C   0  0  0  0  0  0  0  0  0  0  0  0
   47.5952  -30.2951  -94.1886 C   0  0  0  0  0  0  0  0  0  0  0  0
   48.4467  -31.9722  -90.2277 C   0  0  0  0  0  0  0  0  0  0  0  0
   48.5890  -33.1215  -89.2437 C   0  0  0  0  0  0  0  0  0  0  0  0
   49.9500  -33.2833  -88.6347 N   0  0  0  0  0  0  0  0  0  0  0  0
   51.0766  -32.5903  -89.3633 C   0  0  0  0  0  0  0  0  0  0  0  0
   49.9592  -32.8984  -87.1818 C   0  0  0  0  0  0  0  0  0  0  0  0
   46.1271  -24.0079  -95.3619 H   0  0  0  0  0  0  0  0  0  0  0  0
   49.8201  -27.5883  -94.6885 H   0  0  0  0  0  0  0  0  0  0  0  0
   49.0790  -25.2290  -94.2626 H   0  0  0  0  0  0  0  0  0  0  0  0
   50.1728  -34.2912  -88.6420 H   0  0  0  0  0  0  0  0  0  0  0  0
   45.8840  -25.7567  -97.0726 H   0  0  0  0  0  0  0  0  0  0  0  0
   46.5683  -28.1090  -97.4332 H   0  0  0  0  0  0  0  0  0  0  0  0
   50.2765  -29.1320  -99.1191 H   0  0  0  0  0  0  0  0  0  0  0  0
   49.2066  -27.8733  -98.4808 H   0  0  0  0  0  0  0  0  0  0  0  0
   47.2509  -28.9610  -99.6238 H   0  0  0  0  0  0  0  0  0  0  0  0
   48.5421  -28.7736 -100.8311 H   0  0  0  0  0  0  0  0  0  0  0  0
   48.2623  -30.3481 -100.0384 H   0  0  0  0  0  0  0  0  0  0  0  0
   51.3892  -30.9286  -98.1968 H   0  0  0  0  0  0  0  0  0  0  0  0
   51.8338  -33.3029  -98.7130 H   0  0  0  0  0  0  0  0  0  0  0  0
   49.9502  -34.9255  -98.7908 H   0  0  0  0  0  0  0  0  0  0  0  0
   47.6657  -34.1990  -98.2158 H   0  0  0  0  0  0  0  0  0  0  0  0
   47.2782  -31.8744  -97.3697 H   0  0  0  0  0  0  0  0  0  0  0  0
   50.7024  -30.9469  -95.3662 H   0  0  0  0  0  0  0  0  0  0  0  0
   50.8353  -32.1636  -93.2274 H   0  0  0  0  0  0  0  0  0  0  0  0
   46.9107  -30.8300  -92.2251 H   0  0  0  0  0  0  0  0  0  0  0  0
   46.6927  -29.7407  -94.4471 H   0  0  0  0  0  0  0  0  0  0  0  0
   47.3915  -31.6933  -90.3106 H   0  0  0  0  0  0  0  0  0  0  0  0
   49.0103  -31.0977  -89.8813 H   0  0  0  0  0  0  0  0  0  0  0  0
   48.3518  -34.0625  -89.7462 H   0  0  0  0  0  0  0  0  0  0  0  0
   47.8986  -32.9905  -88.4101 H   0  0  0  0  0  0  0  0  0  0  0  0
   52.0207  -33.0135  -89.0065 H   0  0  0  0  0  0  0  0  0  0  0  0
   50.9746  -32.7363  -90.4325 H   0  0  0  0  0  0  0  0  0  0  0  0
   51.0576  -31.5229  -89.0958 H   0  0  0  0  0  0  0  0  0  0  0  0
   49.7104  -31.8319  -87.1302 H   0  0  0  0  0  0  0  0  0  0  0  0
   49.2614  -33.5137  -86.6196 H   0  0  0  0  0  0  0  0  0  0  0  0
   50.9726  -33.0059  -86.7935 H   0  0  0  0  0  0  0  0  0  0  0  0
  1  2  4  0  0  0  0
  2  3  4  0  0  0  0
  3  4  4  0  0  0  0
  4  5  1  0  0  0  0
  4  6  4  0  0  0  0
  1  7  4  0  0  0  0
  6  7  4  0  0  0  0
  1  8  1  0  0  0  0
  8  9  2  0  0  0  0
  9 10  1  0  0  0  0
 10 11  1  0  0  0  0
  9 12  1  0  0  0  0
 12 13  4  0  0  0  0
 13 14  4  0  0  0  0
 14 15  4  0  0  0  0
 15 16  4  0  0  0  0
 12 17  4  0  0  0  0
 16 17  4  0  0  0  0
  8 18  1  0  0  0  0
 18 19  4  0  0  0  0
 19 20  4  0  0  0  0
 20 21  4  0  0  0  0
 21 22  1  0  0  0  0
 21 23  4  0  0  0  0
 18 24  4  0  0  0  0
 23 24  4  0  0  0  0
 22 25  1  0  0  0  0
 25 26  1  0  0  0  0
 26 27  1  0  0  0  0
 27 28  1  0  0  0  0
 27 29  1  0  0  0  0
  5 30  1  0  0  0  0
  2 31  1  0  0  0  0
  3 32  1  0  0  0  0
 27 33  1  0  0  0  0
  6 34  1  0  0  0  0
  7 35  1  0  0  0  0
 10 36  1  0  0  0  0
 10 37  1  0  0  0  0
 11 38  1  0  0  0  0
 11 39  1  0  0  0  0
 11 40  1  0  0  0  0
 13 41  1  0  0  0  0
 14 42  1  0  0  0  0
 15 43  1  0  0  0  0
 16 44  1  0  0  0  0
 17 45  1  0  0  0  0
 19 46  1  0  0  0  0
 20 47  1  0  0  0  0
 23 48  1  0  0  0  0
 24 49  1  0  0  0  0
 25 50  1  0  0  0  0
 25 51  1  0  0  0  0
 26 52  1  0  0  0  0
 26 53  1  0  0  0  0
 28 54  1  0  0  0  0
 28 55  1  0  0  0  0
 28 56  1  0  0  0  0
 29 57  1  0  0  0  0
 29 58  1  0  0  0  0
 29 59  1  0  0  0  0
M  CHG  1   1   1
M  END
