 xtb: 6.6.0 (2ccbbd7)
          12272304003D

 58 60  0     0  0            999 V2000
   10.3560  -30.0479  -30.4121 C   0  0  0  0  0  0  0  0  0  0  0  0
   11.1566  -29.5138  -29.3121 C   0  0  0  0  0  0  0  0  0  0  0  0
   11.6154  -28.1809  -29.2823 C   0  0  0  0  0  0  0  0  0  0  0  0
   12.3477  -27.6731  -28.2201 C   0  0  0  0  0  0  0  0  0  0  0  0
   12.7216  -28.4843  -27.1240 C   0  0  0  0  0  0  0  0  0  0  0  0
   12.3315  -29.8412  -27.1775 C   0  0  0  0  0  0  0  0  0  0  0  0
   11.5494  -30.3216  -28.2189 C   0  0  0  0  0  0  0  0  0  0  0  0
   10.4328  -31.4652  -30.6891 C   0  0  0  0  0  0  0  0  0  0  0  0
   11.6859  -32.1057  -30.6448 C   0  0  0  0  0  0  0  0  0  0  0  0
   11.8491  -33.4160  -31.0508 C   0  0  0  0  0  0  0  0  0  0  0  0
   10.7397  -34.2045  -31.4358 C   0  0  0  0  0  0  0  0  0  0  0  0
    9.4627  -33.5971  -31.3910 C   0  0  0  0  0  0  0  0  0  0  0  0
    9.3252  -32.2552  -31.0740 C   0  0  0  0  0  0  0  0  0  0  0  0
    9.5560  -29.2078  -31.3011 C   0  0  0  0  0  0  0  0  0  0  0  0
    9.3741  -29.5608  -32.6627 C   0  0  0  0  0  0  0  0  0  0  0  0
    8.5827  -28.8165  -33.5245 C   0  0  0  0  0  0  0  0  0  0  0  0
    7.9000  -27.6571  -33.0641 C   0  0  0  0  0  0  0  0  0  0  0  0
    8.1325  -27.2482  -31.7273 C   0  0  0  0  0  0  0  0  0  0  0  0
    8.9222  -28.0112  -30.8791 C   0  0  0  0  0  0  0  0  0  0  0  0
   13.8285  -28.8507  -24.9677 C   0  0  0  0  0  0  0  0  0  0  0  0
   13.5132  -26.5242  -25.8984 C   0  0  0  0  0  0  0  0  0  0  0  0
    9.8723  -36.2616  -32.4661 C   0  0  0  0  0  0  0  0  0  0  0  0
   12.1517  -36.2297  -31.5466 C   0  0  0  0  0  0  0  0  0  0  0  0
    6.5874  -25.6403  -33.5052 C   0  0  0  0  0  0  0  0  0  0  0  0
    6.8274  -27.4169  -35.2586 C   0  0  0  0  0  0  0  0  0  0  0  0
   13.4105  -27.9621  -26.0384 N   0  0  0  0  0  0  0  0  0  0  0  0
   10.9417  -35.5015  -31.8530 N   0  0  0  0  0  0  0  0  0  0  0  0
    7.0498  -26.9514  -33.8950 N   0  0  0  0  0  0  0  0  0  0  0  0
    7.7030  -27.2722  -35.9027 H   0  0  0  0  0  0  0  0  0  0  0  0
    6.5700  -28.4839  -35.2769 H   0  0  0  0  0  0  0  0  0  0  0  0
    5.9812  -26.8716  -35.6867 H   0  0  0  0  0  0  0  0  0  0  0  0
    5.7745  -25.6864  -32.7652 H   0  0  0  0  0  0  0  0  0  0  0  0
    7.3981  -25.0410  -33.0721 H   0  0  0  0  0  0  0  0  0  0  0  0
    6.2088  -25.1130  -34.3846 H   0  0  0  0  0  0  0  0  0  0  0  0
   12.7797  -36.3791  -32.4336 H   0  0  0  0  0  0  0  0  0  0  0  0
   12.7260  -35.7306  -30.7659 H   0  0  0  0  0  0  0  0  0  0  0  0
   11.8730  -37.2160  -31.1563 H   0  0  0  0  0  0  0  0  0  0  0  0
    9.3299  -36.8894  -31.7457 H   0  0  0  0  0  0  0  0  0  0  0  0
    9.1562  -35.6009  -32.9610 H   0  0  0  0  0  0  0  0  0  0  0  0
   10.2850  -36.9171  -33.2395 H   0  0  0  0  0  0  0  0  0  0  0  0
   14.0357  -26.0637  -26.7433 H   0  0  0  0  0  0  0  0  0  0  0  0
   12.5197  -26.0538  -25.8209 H   0  0  0  0  0  0  0  0  0  0  0  0
   14.0609  -26.2864  -24.9819 H   0  0  0  0  0  0  0  0  0  0  0  0
   12.9957  -29.4283  -24.5465 H   0  0  0  0  0  0  0  0  0  0  0  0
   14.5771  -29.5655  -25.3410 H   0  0  0  0  0  0  0  0  0  0  0  0
   14.2938  -28.2688  -24.1676 H   0  0  0  0  0  0  0  0  0  0  0  0
    9.0263  -27.6888  -29.8449 H   0  0  0  0  0  0  0  0  0  0  0  0
    7.6467  -26.3659  -31.3274 H   0  0  0  0  0  0  0  0  0  0  0  0
    8.4612  -29.1612  -34.5445 H   0  0  0  0  0  0  0  0  0  0  0  0
    9.8470  -30.4616  -33.0433 H   0  0  0  0  0  0  0  0  0  0  0  0
    8.3289  -31.8190  -31.1256 H   0  0  0  0  0  0  0  0  0  0  0  0
    8.5637  -34.1777  -31.5740 H   0  0  0  0  0  0  0  0  0  0  0  0
   12.8513  -33.8094  -31.1492 H   0  0  0  0  0  0  0  0  0  0  0  0
   12.5724  -31.5417  -30.3655 H   0  0  0  0  0  0  0  0  0  0  0  0
   11.2740  -31.3733  -28.1968 H   0  0  0  0  0  0  0  0  0  0  0  0
   12.6541  -30.5403  -26.4148 H   0  0  0  0  0  0  0  0  0  0  0  0
   12.5487  -26.6085  -28.2069 H   0  0  0  0  0  0  0  0  0  0  0  0
   11.3603  -27.5006  -30.0930 H   0  0  0  0  0  0  0  0  0  0  0  0
  1  2  4  0  0  0  0
  2  3  4  0  0  0  0
  3  4  2  0  0  0  0
  4  5  4  0  0  0  0
  5  6  4  0  0  0  0
  2  7  4  0  0  0  0
  6  7  2  0  0  0  0
  1  8  1  0  0  0  0
  8  9  4  0  0  0  0
  9 10  2  0  0  0  0
 10 11  4  0  0  0  0
 11 12  4  0  0  0  0
  8 13  4  0  0  0  0
 12 13  2  0  0  0  0
  1 14  1  0  0  0  0
 14 15  4  0  0  0  0
 15 16  2  0  0  0  0
 16 17  4  0  0  0  0
 17 18  4  0  0  0  0
 14 19  4  0  0  0  0
 18 19  2  0  0  0  0
  5 26  4  0  0  0  0
 20 26  1  0  0  0  0
 21 26  1  0  0  0  0
 11 27  4  0  0  0  0
 22 27  1  0  0  0  0
 23 27  1  0  0  0  0
 17 28  4  0  0  0  0
 24 28  1  0  0  0  0
 25 28  1  0  0  0  0
 25 29  1  0  0  0  0
 25 30  1  0  0  0  0
 25 31  1  0  0  0  0
 24 32  1  0  0  0  0
 24 33  1  0  0  0  0
 24 34  1  0  0  0  0
 23 35  1  0  0  0  0
 23 36  1  0  0  0  0
 23 37  1  0  0  0  0
 22 38  1  0  0  0  0
 22 39  1  0  0  0  0
 22 40  1  0  0  0  0
 21 41  1  0  0  0  0
 21 42  1  0  0  0  0
 21 43  1  0  0  0  0
 20 44  1  0  0  0  0
 20 45  1  0  0  0  0
 20 46  1  0  0  0  0
 19 47  1  0  0  0  0
 18 48  1  0  0  0  0
 16 49  1  0  0  0  0
 15 50  1  0  0  0  0
 13 51  1  0  0  0  0
 12 52  1  0  0  0  0
 10 53  1  0  0  0  0
  9 54  1  0  0  0  0
  7 55  1  0  0  0  0
  6 56  1  0  0  0  0
  4 57  1  0  0  0  0
  3 58  1  0  0  0  0
M  CHG  1   1   1
M  END
